<?xml version="1.0" encoding="UTF-8"?>

<!-- generated on 2025-12-24 13:56:54.308679 by osmWebWizard.py v1_23_1+0000-676720d13f6
<configuration>
    <net-file value="C:\Users\Gagana\Sumo\2025-12-24-13-56-05\osm.net.xml.gz"/>
    <output-trip-file value="C:\Users\Gagana\Sumo\2025-12-24-13-56-05\osm.passenger.trips.xml"/>
    <route-file value="C:\Users\Gagana\Sumo\2025-12-24-13-56-05\osm.passenger.rou.xml"/>
    <prefix value="veh"/>
    <trip-attributes value="departLane=&quot;best&quot;"/>
    <fringe-start-attributes value="departSpeed=&quot;max&quot;"/>
    <vehicle-class value="passenger"/>
    <lanes value="True"/>
    <fringe-factor value="25"/>
    <allow-fringe.min-length value="1000.0"/>
    <edge-permission value="passenger"/>
    <via-edge-types value="highway.motorway,highway.motorway_link,highway.trunk_link,highway.primary_link,highway.secondary_link,highway.tertiary_link"/>
    <min-distance value="300.0"/>
    <min-distance.fringe value="10.0"/>
    <remove-loops value="True"/>
    <validate value="True"/>
    <insertion-density value="50.0"/>
</configuration>
-->

<routes xmlns:xsi="http://www.w3.org/2001/XMLSchema-instance" xsi:noNamespaceSchemaLocation="http://sumo.dlr.de/xsd/routes_file.xsd">
    <vType id="veh_passenger" vClass="passenger"/>
    <trip id="veh0" depart="0.00" from="26652030#1" to="-1101331451" departLane="best" type="veh_passenger"/>
    <trip id="veh1" depart="3.60" from="310357283#0" to="311357732#1" departLane="best" type="veh_passenger" departSpeed="max"/>
    <trip id="veh2" depart="7.21" from="1055414211#0" to="24914141#8" departLane="best" type="veh_passenger"/>
    <trip id="veh3" depart="10.81" from="-110464119#1" to="1096709561" departLane="best" type="veh_passenger"/>
    <trip id="veh4" depart="14.42" from="293931248" to="24968394" departLane="best" type="veh_passenger"/>
    <trip id="veh5" depart="18.02" from="728838409" to="1323456348#3" departLane="best" type="veh_passenger" departSpeed="max"/>
    <trip id="veh6" depart="21.62" from="4615406#1" to="296122995#0" departLane="best" type="veh_passenger"/>
    <trip id="veh7" depart="25.23" from="4790810" to="24968394" departLane="best" type="veh_passenger" departSpeed="max"/>
    <trip id="veh8" depart="28.83" from="304162878#1" to="-1152689710" departLane="best" type="veh_passenger"/>
    <trip id="veh9" depart="32.44" from="1105526087" to="4790801" departLane="best" type="veh_passenger" departSpeed="max"/>
    <trip id="veh10" depart="36.04" from="728838409" to="300401898" departLane="best" type="veh_passenger" departSpeed="max"/>
    <trip id="veh11" depart="39.64" from="147646826#0" to="311690284" departLane="best" type="veh_passenger" departSpeed="max"/>
    <trip id="veh12" depart="43.25" from="4615403#1" to="319339413#4" departLane="best" type="veh_passenger"/>
    <trip id="veh13" depart="46.85" from="1095365675#2" to="-111251391#1" departLane="best" type="veh_passenger"/>
    <trip id="veh14" depart="50.46" from="4790810" to="1133993572" departLane="best" type="veh_passenger" departSpeed="max"/>
    <trip id="veh15" depart="54.06" from="188283090#0" to="4615497" departLane="best" type="veh_passenger"/>
    <trip id="veh16" depart="57.66" from="890801131#1" to="24914141#8" departLane="best" type="veh_passenger"/>
    <trip id="veh17" depart="61.27" from="-1152640371#0" to="182620302#2" departLane="best" type="veh_passenger"/>
    <trip id="veh18" depart="64.87" from="890801131#1" to="24968394" departLane="best" type="veh_passenger"/>
    <trip id="veh19" depart="68.47" from="728838409" to="373389574#2" departLane="best" type="veh_passenger" departSpeed="max"/>
    <trip id="veh20" depart="72.08" from="-1055414211#2" to="311690284" departLane="best" type="veh_passenger"/>
    <trip id="veh21" depart="75.68" from="299397170" to="24968394" departLane="best" type="veh_passenger"/>
    <trip id="veh22" depart="79.29" from="1373064823#0" to="4790801" departLane="best" type="veh_passenger" departSpeed="max"/>
    <trip id="veh23" depart="82.89" from="147646826#0" to="1055414211#0" departLane="best" type="veh_passenger" departSpeed="max"/>
    <trip id="veh24" depart="86.49" from="4790842" to="4613299#0" departLane="best" type="veh_passenger"/>
    <trip id="veh25" depart="90.10" from="310357283#0" to="24968394" departLane="best" type="veh_passenger" departSpeed="max"/>
    <trip id="veh26" depart="93.70" from="310357283#0" to="24968394" departLane="best" type="veh_passenger" departSpeed="max"/>
    <trip id="veh27" depart="97.31" from="-1006033769" to="1138696720#0" departLane="best" type="veh_passenger"/>
    <trip id="veh28" depart="100.91" from="-1095365675#2" to="4790801" departLane="best" type="veh_passenger"/>
    <trip id="veh29" depart="104.51" from="4790810" to="333369841" departLane="best" type="veh_passenger" departSpeed="max"/>
    <trip id="veh30" depart="108.12" from="1105526087" to="-1152689710" departLane="best" type="veh_passenger" departSpeed="max"/>
    <trip id="veh31" depart="111.72" from="-137954786" to="319339413#4" departLane="best" type="veh_passenger"/>
    <trip id="veh32" depart="115.33" from="310357283#0" to="-4613299#3" departLane="best" type="veh_passenger" departSpeed="max"/>
    <trip id="veh33" depart="118.93" from="1410118066#0" to="24968394" departLane="best" type="veh_passenger"/>
    <trip id="veh34" depart="122.53" from="1373064823#0" to="1101404246#1" departLane="best" type="veh_passenger" departSpeed="max"/>
    <trip id="veh35" depart="126.14" from="147646826#0" to="31619761" departLane="best" type="veh_passenger" departSpeed="max"/>
    <trip id="veh36" depart="129.74" from="1107953489" to="288749951" departLane="best" type="veh_passenger"/>
    <trip id="veh37" depart="133.35" from="1095407470#0" to="1104460750" departLane="best" type="veh_passenger"/>
    <trip id="veh38" depart="136.95" from="1095365675#2" to="4615497" departLane="best" type="veh_passenger"/>
    <trip id="veh39" depart="140.55" from="4790810" to="-137954786" departLane="best" type="veh_passenger" departSpeed="max"/>
    <trip id="veh40" depart="144.16" from="728838409" to="24968394" departLane="best" type="veh_passenger" departSpeed="max"/>
    <trip id="veh41" depart="147.76" from="1373064823#0" to="24914141#8" departLane="best" type="veh_passenger" departSpeed="max"/>
    <trip id="veh42" depart="151.37" from="1040630268#1" to="24914141#8" departLane="best" type="veh_passenger"/>
    <trip id="veh43" depart="154.97" from="147646826#0" to="-1152689710" departLane="best" type="veh_passenger" departSpeed="max"/>
    <trip id="veh44" depart="158.57" from="909009143" to="333369841" departLane="best" type="veh_passenger"/>
    <trip id="veh45" depart="162.18" from="110464119#1" to="319339413#4" departLane="best" type="veh_passenger"/>
    <trip id="veh46" depart="165.78" from="147646826#0" to="311690284" departLane="best" type="veh_passenger" departSpeed="max"/>
    <trip id="veh47" depart="169.38" from="728838409" to="24968394" departLane="best" type="veh_passenger" departSpeed="max"/>
    <trip id="veh48" depart="172.99" from="147646826#0" to="31619761" departLane="best" type="veh_passenger" departSpeed="max"/>
    <trip id="veh49" depart="176.59" from="147646826#0" to="333369841" departLane="best" type="veh_passenger" departSpeed="max"/>
    <trip id="veh50" depart="180.20" from="147646826#0" to="4790801" departLane="best" type="veh_passenger" departSpeed="max"/>
    <trip id="veh51" depart="183.80" from="4790810" to="4614987#2" departLane="best" type="veh_passenger" departSpeed="max"/>
    <trip id="veh52" depart="187.40" from="295445243" to="-1055409898#2" departLane="best" type="veh_passenger"/>
    <trip id="veh53" depart="191.01" from="1105526087" to="296122995#0" departLane="best" type="veh_passenger" departSpeed="max"/>
    <trip id="veh54" depart="194.61" from="307098733" to="1096709571#1" departLane="best" type="veh_passenger"/>
    <trip id="veh55" depart="198.22" from="1445880528" to="4615497" departLane="best" type="veh_passenger"/>
    <trip id="veh56" depart="201.82" from="-1040630268#3" to="319339413#4" departLane="best" type="veh_passenger"/>
    <trip id="veh57" depart="205.42" from="310357283#0" to="24968394" departLane="best" type="veh_passenger" departSpeed="max"/>
    <trip id="veh58" depart="209.03" from="1373064823#0" to="-1055414211#0" departLane="best" type="veh_passenger" departSpeed="max"/>
    <trip id="veh59" depart="212.63" from="4790833" to="24968394" departLane="best" type="veh_passenger"/>
    <trip id="veh60" depart="216.24" from="1105526087" to="4615497" departLane="best" type="veh_passenger" departSpeed="max"/>
    <trip id="veh61" depart="219.84" from="311357732#1" to="373389574#2" departLane="best" type="veh_passenger"/>
    <trip id="veh62" depart="223.44" from="4790810" to="1101404059#0" departLane="best" type="veh_passenger" departSpeed="max"/>
    <trip id="veh63" depart="227.05" from="310357283#0" to="4614989#2" departLane="best" type="veh_passenger" departSpeed="max"/>
    <trip id="veh64" depart="230.65" from="1152689710" to="298473729" departLane="best" type="veh_passenger" departSpeed="max"/>
    <trip id="veh65" depart="234.26" from="4790810" to="4790839#1" departLane="best" type="veh_passenger" departSpeed="max"/>
    <trip id="veh66" depart="237.86" from="325818854" to="4614987#6" departLane="best" type="veh_passenger"/>
    <trip id="veh67" depart="241.46" from="-1101331451" to="31619761" departLane="best" type="veh_passenger"/>
    <trip id="veh68" depart="245.07" from="1105526087" to="4790801" departLane="best" type="veh_passenger" departSpeed="max"/>
    <trip id="veh69" depart="248.67" from="4790810" to="333369841" departLane="best" type="veh_passenger" departSpeed="max"/>
    <trip id="veh70" depart="252.28" from="311357732#1" to="1105526111#1" departLane="best" type="veh_passenger"/>
    <trip id="veh71" depart="255.88" from="-109819340" to="1096709540" departLane="best" type="veh_passenger"/>
    <trip id="veh72" depart="259.48" from="728838409" to="24968394" departLane="best" type="veh_passenger" departSpeed="max"/>
    <trip id="veh73" depart="263.09" from="728838409" to="-22036538#0" departLane="best" type="veh_passenger" departSpeed="max"/>
    <trip id="veh74" depart="266.69" from="728838409" to="1055414211#0" departLane="best" type="veh_passenger" departSpeed="max"/>
    <trip id="veh75" depart="270.30" from="310357283#0" to="1133993557#1" departLane="best" type="veh_passenger" departSpeed="max"/>
    <trip id="veh76" depart="273.90" from="1101404246#1" to="311690284" departLane="best" type="veh_passenger"/>
    <trip id="veh77" depart="277.50" from="-1040630268#1" to="4790801" departLane="best" type="veh_passenger"/>
    <trip id="veh78" depart="281.11" from="147646826#0" to="311690284" departLane="best" type="veh_passenger" departSpeed="max"/>
    <trip id="veh79" depart="284.71" from="1105526087" to="333369841" departLane="best" type="veh_passenger" departSpeed="max"/>
    <trip id="veh80" depart="288.31" from="728838409" to="311357732#1" departLane="best" type="veh_passenger" departSpeed="max"/>
    <trip id="veh81" depart="291.92" from="4790822" to="296599839#1" departLane="best" type="veh_passenger"/>
    <trip id="veh82" depart="295.52" from="1105526087" to="24968394" departLane="best" type="veh_passenger" departSpeed="max"/>
    <trip id="veh83" depart="299.13" from="296122995#0" to="24914141#8" departLane="best" type="veh_passenger"/>
    <trip id="veh84" depart="302.73" from="1373064823#0" to="1101404246#1" departLane="best" type="veh_passenger" departSpeed="max"/>
    <trip id="veh85" depart="306.33" from="311357732#1" to="1020548406" departLane="best" type="veh_passenger"/>
    <trip id="veh86" depart="309.94" from="109819340" to="24914141#8" departLane="best" type="veh_passenger"/>
    <trip id="veh87" depart="313.54" from="4615407#3" to="-1408122424#0" departLane="best" type="veh_passenger"/>
    <trip id="veh88" depart="317.15" from="296122995#0" to="-1055304388" departLane="best" type="veh_passenger"/>
    <trip id="veh89" depart="320.75" from="310357283#0" to="319339413#4" departLane="best" type="veh_passenger" departSpeed="max"/>
    <trip id="veh90" depart="324.35" from="147646826#0" to="-1152689710" departLane="best" type="veh_passenger" departSpeed="max"/>
    <trip id="veh91" depart="327.96" from="1101404059#0" to="333369841" departLane="best" type="veh_passenger"/>
    <trip id="veh92" depart="331.56" from="1373064823#0" to="319339413#4" departLane="best" type="veh_passenger" departSpeed="max"/>
    <trip id="veh93" depart="335.17" from="4790810" to="296599839#0" departLane="best" type="veh_passenger" departSpeed="max"/>
    <trip id="veh94" depart="338.77" from="309300321#0" to="24914141#8" departLane="best" type="veh_passenger"/>
    <trip id="veh95" depart="342.37" from="4790810" to="31619761" departLane="best" type="veh_passenger" departSpeed="max"/>
    <trip id="veh96" depart="345.98" from="310357283#0" to="24968394" departLane="best" type="veh_passenger" departSpeed="max"/>
    <trip id="veh97" depart="349.58" from="1105526087" to="1134090050" departLane="best" type="veh_passenger" departSpeed="max"/>
    <trip id="veh98" depart="353.19" from="147646826#0" to="-4614989#0" departLane="best" type="veh_passenger" departSpeed="max"/>
    <trip id="veh99" depart="356.79" from="304162878#1" to="-1152689710" departLane="best" type="veh_passenger"/>
    <trip id="veh100" depart="360.39" from="188283090#0" to="311690284" departLane="best" type="veh_passenger"/>
    <trip id="veh101" depart="364.00" from="4790810" to="319339413#4" departLane="best" type="veh_passenger" departSpeed="max"/>
    <trip id="veh102" depart="367.60" from="1133993557#1" to="319339413#1" departLane="best" type="veh_passenger"/>
    <trip id="veh103" depart="371.21" from="147646826#0" to="296122995#0" departLane="best" type="veh_passenger" departSpeed="max"/>
    <trip id="veh104" depart="374.81" from="1055414211#2" to="1104460750" departLane="best" type="veh_passenger"/>
    <trip id="veh105" depart="378.41" from="1373064823#0" to="-1105526111#1" departLane="best" type="veh_passenger" departSpeed="max"/>
    <trip id="veh106" depart="382.02" from="137954786" to="-4613299#3" departLane="best" type="veh_passenger"/>
    <trip id="veh107" depart="385.62" from="-4614989#1" to="24914141#8" departLane="best" type="veh_passenger"/>
    <trip id="veh108" depart="389.22" from="-1107953482" to="177372522" departLane="best" type="veh_passenger" departSpeed="max"/>
    <trip id="veh109" depart="392.83" from="310357283#0" to="177372522" departLane="best" type="veh_passenger" departSpeed="max"/>
    <trip id="veh110" depart="396.43" from="310357283#0" to="333369841" departLane="best" type="veh_passenger" departSpeed="max"/>
    <trip id="veh111" depart="400.04" from="-1095365675#2" to="24968394" departLane="best" type="veh_passenger"/>
    <trip id="veh112" depart="403.64" from="909009143" to="1410118066#0" departLane="best" type="veh_passenger"/>
    <trip id="veh113" depart="407.24" from="293931248" to="319339413#4" departLane="best" type="veh_passenger"/>
    <trip id="veh114" depart="410.85" from="295445243" to="319339413#2" departLane="best" type="veh_passenger"/>
    <trip id="veh115" depart="414.45" from="728838409" to="1096709561" departLane="best" type="veh_passenger" departSpeed="max"/>
    <trip id="veh116" depart="418.06" from="301241681#3" to="319339413#4" departLane="best" type="veh_passenger"/>
    <trip id="veh117" depart="421.66" from="310357283#0" to="-19801644#2" departLane="best" type="veh_passenger" departSpeed="max"/>
    <trip id="veh118" depart="425.26" from="373389574#2" to="4790801" departLane="best" type="veh_passenger"/>
    <trip id="veh119" depart="428.87" from="1105526087" to="311357732#1" departLane="best" type="veh_passenger" departSpeed="max"/>
    <trip id="veh120" depart="432.47" from="4615407#4" to="295445243" departLane="best" type="veh_passenger"/>
    <trip id="veh121" depart="436.08" from="-373389574#0" to="492609984#1" departLane="best" type="veh_passenger"/>
    <trip id="veh122" depart="439.68" from="147646826#0" to="137954786" departLane="best" type="veh_passenger" departSpeed="max"/>
    <trip id="veh123" depart="443.28" from="4615407#3" to="333369841" departLane="best" type="veh_passenger"/>
    <trip id="veh124" depart="446.89" from="310357283#0" to="4790822" departLane="best" type="veh_passenger" departSpeed="max"/>
    <trip id="veh125" depart="450.49" from="147646826#0" to="24914141#8" departLane="best" type="veh_passenger" departSpeed="max"/>
    <trip id="veh126" depart="454.10" from="1373064823#0" to="31619761" departLane="best" type="veh_passenger" departSpeed="max"/>
    <trip id="veh127" depart="457.70" from="1105526087" to="333369841" departLane="best" type="veh_passenger" departSpeed="max"/>
    <trip id="veh128" depart="461.30" from="1373064823#0" to="296598505" departLane="best" type="veh_passenger" departSpeed="max"/>
    <trip id="veh129" depart="464.91" from="112128418#2" to="4614987#4" departLane="best" type="veh_passenger"/>
    <trip id="veh130" depart="468.51" from="-1055414211#1" to="4790801" departLane="best" type="veh_passenger"/>
    <trip id="veh131" depart="472.12" from="1445880528" to="319339413#4" departLane="best" type="veh_passenger"/>
    <trip id="veh132" depart="475.72" from="1447973972" to="319339413#4" departLane="best" type="veh_passenger"/>
    <trip id="veh133" depart="479.32" from="-24149429#0" to="1104460751#1" departLane="best" type="veh_passenger"/>
    <trip id="veh134" depart="482.93" from="300401898" to="1133761630#0" departLane="best" type="veh_passenger"/>
    <trip id="veh135" depart="486.53" from="188283090#0" to="24914141#8" departLane="best" type="veh_passenger"/>
    <trip id="veh136" depart="490.13" from="147646826#0" to="232070355#0" departLane="best" type="veh_passenger" departSpeed="max"/>
    <trip id="veh137" depart="493.74" from="310357283#0" to="1144528537#1" departLane="best" type="veh_passenger" departSpeed="max"/>
    <trip id="veh138" depart="497.34" from="1101404246#1" to="-29054704#0" departLane="best" type="veh_passenger"/>
    <trip id="veh139" depart="500.95" from="147646826#0" to="319339413#4" departLane="best" type="veh_passenger" departSpeed="max"/>
    <trip id="veh140" depart="504.55" from="728838409" to="24968394" departLane="best" type="veh_passenger" departSpeed="max"/>
    <trip id="veh141" depart="508.15" from="728838409" to="24968394" departLane="best" type="veh_passenger" departSpeed="max"/>
    <trip id="veh142" depart="511.76" from="301241681#1" to="-4613299#1" departLane="best" type="veh_passenger"/>
    <trip id="veh143" depart="515.36" from="4790810" to="24914141#8" departLane="best" type="veh_passenger" departSpeed="max"/>
    <trip id="veh144" depart="518.97" from="4790810" to="24968394" departLane="best" type="veh_passenger" departSpeed="max"/>
    <trip id="veh145" depart="522.57" from="728838409" to="-24149429#0" departLane="best" type="veh_passenger" departSpeed="max"/>
    <trip id="veh146" depart="526.17" from="310357283#0" to="296122995#1" departLane="best" type="veh_passenger" departSpeed="max"/>
    <trip id="veh147" depart="529.78" from="147646826#0" to="24914141#8" departLane="best" type="veh_passenger" departSpeed="max"/>
    <trip id="veh148" depart="533.38" from="24149429#0" to="296122995#1" departLane="best" type="veh_passenger"/>
    <trip id="veh149" depart="536.99" from="310357283#0" to="4790801" departLane="best" type="veh_passenger" departSpeed="max"/>
    <trip id="veh150" depart="540.59" from="-566764344#1" to="-1410118066#0" departLane="best" type="veh_passenger"/>
    <trip id="veh151" depart="544.19" from="-1040630268#3" to="24914141#8" departLane="best" type="veh_passenger"/>
    <trip id="veh152" depart="547.80" from="310357283#0" to="298912688" departLane="best" type="veh_passenger" departSpeed="max"/>
    <trip id="veh153" depart="551.40" from="310357283#0" to="24968394" departLane="best" type="veh_passenger" departSpeed="max"/>
    <trip id="veh154" depart="555.01" from="299605821" to="311690284" departLane="best" type="veh_passenger"/>
    <trip id="veh155" depart="558.61" from="728838409" to="909009143" departLane="best" type="veh_passenger" departSpeed="max"/>
    <trip id="veh156" depart="562.21" from="-1107953482" to="319339413#3" departLane="best" type="veh_passenger" departSpeed="max"/>
    <trip id="veh157" depart="565.82" from="297310646#1" to="333369841" departLane="best" type="veh_passenger"/>
    <trip id="veh158" depart="569.42" from="1105526087" to="311690284" departLane="best" type="veh_passenger" departSpeed="max"/>
    <trip id="veh159" depart="573.03" from="1105526087" to="4790801" departLane="best" type="veh_passenger" departSpeed="max"/>
    <trip id="veh160" depart="576.63" from="329612224" to="24968394" departLane="best" type="veh_passenger"/>
    <trip id="veh161" depart="580.23" from="1373064823#0" to="1133993572" departLane="best" type="veh_passenger" departSpeed="max"/>
    <trip id="veh162" depart="583.84" from="310357283#0" to="1096709571#1" departLane="best" type="veh_passenger" departSpeed="max"/>
    <trip id="veh163" depart="587.44" from="147646826#0" to="4790801" departLane="best" type="veh_passenger" departSpeed="max"/>
    <trip id="veh164" depart="591.05" from="1373064823#0" to="311690284" departLane="best" type="veh_passenger" departSpeed="max"/>
    <trip id="veh165" depart="594.65" from="-373389574#1" to="4790838#1" departLane="best" type="veh_passenger"/>
    <trip id="veh166" depart="598.25" from="728838409" to="4615497" departLane="best" type="veh_passenger" departSpeed="max"/>
    <trip id="veh167" depart="601.86" from="1373064823#0" to="-23294727#2" departLane="best" type="veh_passenger" departSpeed="max"/>
    <trip id="veh168" depart="605.46" from="4613299#6" to="24914141#8" departLane="best" type="veh_passenger"/>
    <trip id="veh169" depart="609.06" from="307098733" to="24914141#8" departLane="best" type="veh_passenger"/>
    <trip id="veh170" depart="612.67" from="1105526087" to="333369841" departLane="best" type="veh_passenger" departSpeed="max"/>
    <trip id="veh171" depart="616.27" from="147646826#0" to="187091991" departLane="best" type="veh_passenger" departSpeed="max"/>
    <trip id="veh172" depart="619.88" from="4790810" to="4484427#0" departLane="best" type="veh_passenger" departSpeed="max"/>
    <trip id="veh173" depart="623.48" from="147646826#0" to="333369841" departLane="best" type="veh_passenger" departSpeed="max"/>
    <trip id="veh174" depart="627.08" from="188283090#1" to="890801131#1" departLane="best" type="veh_passenger"/>
    <trip id="veh175" depart="630.69" from="147646826#0" to="24968394" departLane="best" type="veh_passenger" departSpeed="max"/>
    <trip id="veh176" depart="634.29" from="1020548406" to="311690284" departLane="best" type="veh_passenger"/>
    <trip id="veh177" depart="637.90" from="310357283#0" to="-1152689710" departLane="best" type="veh_passenger" departSpeed="max"/>
    <trip id="veh178" depart="641.50" from="310357283#0" to="311690284" departLane="best" type="veh_passenger" departSpeed="max"/>
    <trip id="veh179" depart="645.10" from="325818854" to="187103791" departLane="best" type="veh_passenger"/>
    <trip id="veh180" depart="648.71" from="296598505" to="333369841" departLane="best" type="veh_passenger"/>
    <trip id="veh181" depart="652.31" from="-1107953482" to="24914141#8" departLane="best" type="veh_passenger" departSpeed="max"/>
    <trip id="veh182" depart="655.92" from="19801644#1" to="4613299#0" departLane="best" type="veh_passenger"/>
    <trip id="veh183" depart="659.52" from="4790810" to="24914141#2" departLane="best" type="veh_passenger" departSpeed="max"/>
    <trip id="veh184" depart="663.12" from="147646826#0" to="24914141#8" departLane="best" type="veh_passenger" departSpeed="max"/>
    <trip id="veh185" depart="666.73" from="1107953489" to="311690284" departLane="best" type="veh_passenger"/>
    <trip id="veh186" depart="670.33" from="293931248" to="333369841" departLane="best" type="veh_passenger"/>
    <trip id="veh187" depart="673.94" from="4615407#6" to="373389574#0" departLane="best" type="veh_passenger"/>
    <trip id="veh188" depart="677.54" from="307098733" to="319339413#4" departLane="best" type="veh_passenger"/>
    <trip id="veh189" depart="681.14" from="4790810" to="-1138696720#0" departLane="best" type="veh_passenger" departSpeed="max"/>
    <trip id="veh190" depart="684.75" from="566764344#2" to="890801131#1" departLane="best" type="veh_passenger"/>
    <trip id="veh191" depart="688.35" from="310357283#0" to="24914109" departLane="best" type="veh_passenger" departSpeed="max"/>
    <trip id="veh192" depart="691.96" from="4790810" to="24914141#4" departLane="best" type="veh_passenger" departSpeed="max"/>
    <trip id="veh193" depart="695.56" from="301167584#0" to="4615497" departLane="best" type="veh_passenger"/>
    <trip id="veh194" depart="699.16" from="-1107953482" to="319339413#4" departLane="best" type="veh_passenger" departSpeed="max"/>
    <trip id="veh195" depart="702.77" from="1105526087" to="173197451#2" departLane="best" type="veh_passenger" departSpeed="max"/>
    <trip id="veh196" depart="706.37" from="-4615407#4" to="24968394" departLane="best" type="veh_passenger"/>
    <trip id="veh197" depart="709.97" from="4790810" to="298026906#1" departLane="best" type="veh_passenger" departSpeed="max"/>
    <trip id="veh198" depart="713.58" from="1096709561" to="4615497" departLane="best" type="veh_passenger"/>
    <trip id="veh199" depart="717.18" from="-4615407#0" to="24914141#8" departLane="best" type="veh_passenger"/>
    <trip id="veh200" depart="720.79" from="1101404246#1" to="111251391#0" departLane="best" type="veh_passenger"/>
    <trip id="veh201" depart="724.39" from="-1055414211#0" to="319339414#1" departLane="best" type="veh_passenger"/>
    <trip id="veh202" depart="727.99" from="4790822" to="311357732#1" departLane="best" type="veh_passenger"/>
    <trip id="veh203" depart="731.60" from="1133993557#0" to="28679067#1" departLane="best" type="veh_passenger"/>
    <trip id="veh204" depart="735.20" from="1101404059#0" to="333369841" departLane="best" type="veh_passenger"/>
    <trip id="veh205" depart="738.81" from="177372522" to="24968394" departLane="best" type="veh_passenger"/>
    <trip id="veh206" depart="742.41" from="1105526087" to="24968394" departLane="best" type="veh_passenger" departSpeed="max"/>
    <trip id="veh207" depart="746.01" from="299605821" to="31619761" departLane="best" type="veh_passenger"/>
    <trip id="veh208" depart="749.62" from="-1107953482" to="296122995#1" departLane="best" type="veh_passenger" departSpeed="max"/>
    <trip id="veh209" depart="753.22" from="147646826#0" to="4615497" departLane="best" type="veh_passenger" departSpeed="max"/>
    <trip id="veh210" depart="756.83" from="298912688" to="311690284" departLane="best" type="veh_passenger"/>
    <trip id="veh211" depart="760.43" from="296122995#1" to="333369841" departLane="best" type="veh_passenger"/>
    <trip id="veh212" depart="764.03" from="-566764345" to="-4613300#2" departLane="best" type="veh_passenger"/>
    <trip id="veh213" depart="767.64" from="147646826#0" to="4615497" departLane="best" type="veh_passenger" departSpeed="max"/>
    <trip id="veh214" depart="771.24" from="4484427#1" to="24914141#8" departLane="best" type="veh_passenger"/>
    <trip id="veh215" depart="774.85" from="111251391#0" to="-22036538#0" departLane="best" type="veh_passenger"/>
    <trip id="veh216" depart="778.45" from="728838409" to="-4615404#0" departLane="best" type="veh_passenger" departSpeed="max"/>
    <trip id="veh217" depart="782.05" from="728838409" to="373389574#1" departLane="best" type="veh_passenger" departSpeed="max"/>
    <trip id="veh218" depart="785.66" from="728838409" to="319339414#1" departLane="best" type="veh_passenger" departSpeed="max"/>
    <trip id="veh219" depart="789.26" from="-1083617992#2" to="24968394" departLane="best" type="veh_passenger"/>
    <trip id="veh220" depart="792.87" from="4484427#0" to="4790801" departLane="best" type="veh_passenger"/>
    <trip id="veh221" depart="796.47" from="147646826#1" to="4615497" departLane="best" type="veh_passenger"/>
    <trip id="veh222" depart="800.07" from="1055414262" to="-1152689710" departLane="best" type="veh_passenger"/>
    <trip id="veh223" depart="803.68" from="4484427#1" to="4615497" departLane="best" type="veh_passenger"/>
    <trip id="veh224" depart="807.28" from="-4615404#2" to="4790801" departLane="best" type="veh_passenger"/>
    <trip id="veh225" depart="810.89" from="1105526087" to="24914141#8" departLane="best" type="veh_passenger" departSpeed="max"/>
    <trip id="veh226" depart="814.49" from="-4614989#1" to="24914141#8" departLane="best" type="veh_passenger"/>
    <trip id="veh227" depart="818.09" from="310357283#0" to="-552963268" departLane="best" type="veh_passenger" departSpeed="max"/>
    <trip id="veh228" depart="821.70" from="728838409" to="-111251391#1" departLane="best" type="veh_passenger" departSpeed="max"/>
    <trip id="veh229" depart="825.30" from="728838409" to="333369841" departLane="best" type="veh_passenger" departSpeed="max"/>
    <trip id="veh230" depart="828.90" from="147646826#0" to="4790839#1" departLane="best" type="veh_passenger" departSpeed="max"/>
    <trip id="veh231" depart="832.51" from="4615406#2" to="24914141#8" departLane="best" type="veh_passenger"/>
    <trip id="veh232" depart="836.11" from="4790810" to="1144528535#0" departLane="best" type="veh_passenger" departSpeed="max"/>
    <trip id="veh233" depart="839.72" from="-1040630268#3" to="333369841" departLane="best" type="veh_passenger"/>