<?xml version="1.0" encoding="UTF-8"?>

<!-- generated on 2025-12-24 13:56:51.733151 by osmWebWizard.py v1_23_1+0000-676720d13f6
<configuration>
    <net-file value="C:\Users\Gagana\Sumo\2025-12-24-13-56-05\osm.net.xml.gz"/>
    <output-trip-file value="C:\Users\Gagana\Sumo\2025-12-24-13-56-05\osm.motorcycle.trips.xml"/>
    <route-file value="C:\Users\Gagana\Sumo\2025-12-24-13-56-05\osm.motorcycle.rou.xml"/>
    <prefix value="motorcycle"/>
    <trip-attributes value="departLane=&quot;best&quot;"/>
    <fringe-start-attributes value="departSpeed=&quot;max&quot;"/>
    <vehicle-class value="motorcycle"/>
    <fringe-factor value="20"/>
    <edge-permission value="motorcycle"/>
    <via-edge-types value="highway.motorway,highway.motorway_link,highway.trunk_link,highway.primary_link,highway.secondary_link,highway.tertiary_link"/>
    <max-distance value="1200.0"/>
    <remove-loops value="True"/>
    <validate value="True"/>
    <insertion-density value="40.0"/>
</configuration>
-->

<routes xmlns:xsi="http://www.w3.org/2001/XMLSchema-instance" xsi:noNamespaceSchemaLocation="http://sumo.dlr.de/xsd/routes_file.xsd">
    <vType id="motorcycle_motorcycle" vClass="motorcycle"/>
    <trip id="motorcycle0" depart="0.00" from="4615407#3" to="-1152689710" departLane="best" type="motorcycle_motorcycle"/>
    <trip id="motorcycle1" depart="4.50" from="1105526087" to="-1083617993#0" departLane="best" type="motorcycle_motorcycle" departSpeed="max"/>
    <trip id="motorcycle2" depart="9.01" from="-4613306#0" to="187103791" departLane="best" type="motorcycle_motorcycle"/>
    <trip id="motorcycle3" depart="13.51" from="-1083617992#3" to="-29054704#1" departLane="best" type="motorcycle_motorcycle"/>
    <trip id="motorcycle4" depart="18.02" from="-4614987#0" to="24914141#8" departLane="best" type="motorcycle_motorcycle"/>
    <trip id="motorcycle5" depart="22.52" from="310357283#0" to="-1040630268#3" departLane="best" type="motorcycle_motorcycle" departSpeed="max"/>
    <trip id="motorcycle6" depart="27.03" from="310357283#0" to="311690284" departLane="best" type="motorcycle_motorcycle" departSpeed="max"/>
    <trip id="motorcycle7" depart="31.53" from="566764345" to="110464119#1" departLane="best" type="motorcycle_motorcycle"/>
    <trip id="motorcycle8" depart="36.04" from="-1134090050" to="-1152689710" departLane="best" type="motorcycle_motorcycle"/>
    <trip id="motorcycle9" depart="40.54" from="4484427#0" to="24968394" departLane="best" type="motorcycle_motorcycle"/>
    <trip id="motorcycle10" depart="45.05" from="310357283#0" to="31619761" departLane="best" type="motorcycle_motorcycle" departSpeed="max"/>
    <trip id="motorcycle11" depart="49.55" from="1152689710" to="48303485#0" departLane="best" type="motorcycle_motorcycle" departSpeed="max"/>
    <trip id="motorcycle12" depart="54.06" from="1096709540" to="232070355#0" departLane="best" type="motorcycle_motorcycle"/>
    <trip id="motorcycle13" depart="58.56" from="4613300#1" to="24914141#8" departLane="best" type="motorcycle_motorcycle"/>
    <trip id="motorcycle14" depart="63.07" from="-4614989#0" to="1055414211#1" departLane="best" type="motorcycle_motorcycle"/>
    <trip id="motorcycle15" depart="67.57" from="-1107953482" to="-4615404#0" departLane="best" type="motorcycle_motorcycle" departSpeed="max"/>
    <trip id="motorcycle16" depart="72.08" from="-1144528535#0" to="1040630268#2" departLane="best" type="motorcycle_motorcycle"/>
    <trip id="motorcycle17" depart="76.58" from="1095365675#1" to="-4613299#3" departLane="best" type="motorcycle_motorcycle"/>
    <trip id="motorcycle18" depart="81.09" from="147646826#0" to="24968394" departLane="best" type="motorcycle_motorcycle" departSpeed="max"/>
    <trip id="motorcycle19" depart="85.59" from="-31619761" to="31619761" departLane="best" type="motorcycle_motorcycle" departSpeed="max"/>
    <trip id="motorcycle20" depart="90.10" from="728838409" to="288749951" departLane="best" type="motorcycle_motorcycle" departSpeed="max"/>
    <trip id="motorcycle21" depart="94.60" from="1373064823#0" to="305094628#0" departLane="best" type="motorcycle_motorcycle" departSpeed="max"/>
    <trip id="motorcycle22" depart="99.11" from="373389574#2" to="319339413#4" departLane="best" type="motorcycle_motorcycle"/>
    <trip id="motorcycle23" depart="103.61" from="4614989#2" to="1096709540" departLane="best" type="motorcycle_motorcycle"/>
    <trip id="motorcycle24" depart="108.12" from="4790810" to="1397609462#1" departLane="best" type="motorcycle_motorcycle" departSpeed="max"/>
    <trip id="motorcycle25" depart="112.62" from="1373064823#0" to="-671026861#0" departLane="best" type="motorcycle_motorcycle" departSpeed="max"/>
    <trip id="motorcycle26" depart="117.13" from="1373064823#0" to="4615466" departLane="best" type="motorcycle_motorcycle" departSpeed="max"/>
    <trip id="motorcycle27" depart="121.63" from="1104460750" to="-4613306#0" departLane="best" type="motorcycle_motorcycle"/>
    <trip id="motorcycle28" depart="126.14" from="310357283#0" to="1133993557#0" departLane="best" type="motorcycle_motorcycle" departSpeed="max"/>
    <trip id="motorcycle29" depart="130.64" from="-1107953482" to="111251391#0" departLane="best" type="motorcycle_motorcycle" departSpeed="max"/>
    <trip id="motorcycle30" depart="135.15" from="728838409" to="4613300#0" departLane="best" type="motorcycle_motorcycle" departSpeed="max"/>
    <trip id="motorcycle31" depart="139.65" from="-1055409898#1" to="311690284" departLane="best" type="motorcycle_motorcycle"/>
    <trip id="motorcycle32" depart="144.16" from="1133993557#0" to="4790801" departLane="best" type="motorcycle_motorcycle"/>
    <trip id="motorcycle33" depart="148.66" from="4614989#1" to="-671026861#0" departLane="best" type="motorcycle_motorcycle"/>
    <trip id="motorcycle34" depart="153.17" from="1144528529#1" to="-173197451#6" departLane="best" type="motorcycle_motorcycle"/>
    <trip id="motorcycle35" depart="157.67" from="4790810" to="4614987#4" departLane="best" type="motorcycle_motorcycle" departSpeed="max"/>
    <trip id="motorcycle36" depart="162.18" from="-671026861#1" to="28679067#1" departLane="best" type="motorcycle_motorcycle"/>
    <trip id="motorcycle37" depart="166.68" from="1413812166#2" to="-1413812166#0" departLane="best" type="motorcycle_motorcycle"/>
    <trip id="motorcycle38" depart="171.19" from="-1006033769" to="109819340" departLane="best" type="motorcycle_motorcycle"/>
    <trip id="motorcycle39" depart="175.69" from="-1055414211#1" to="4615497" departLane="best" type="motorcycle_motorcycle"/>
    <trip id="motorcycle40" depart="180.20" from="4615403#1" to="333369841" departLane="best" type="motorcycle_motorcycle"/>
    <trip id="motorcycle41" depart="184.70" from="1020548406" to="-1133761630#0" departLane="best" type="motorcycle_motorcycle"/>
    <trip id="motorcycle42" depart="189.21" from="4615403#1" to="4790801" departLane="best" type="motorcycle_motorcycle"/>
    <trip id="motorcycle43" depart="193.71" from="-1107953482" to="1445880528" departLane="best" type="motorcycle_motorcycle" departSpeed="max"/>
    <trip id="motorcycle44" depart="198.22" from="-1107953482" to="319339413#1" departLane="best" type="motorcycle_motorcycle" departSpeed="max"/>
    <trip id="motorcycle45" depart="202.72" from="299605621" to="-1411131710#1" departLane="best" type="motorcycle_motorcycle"/>
    <trip id="motorcycle46" depart="207.23" from="1105526087" to="-4613299#6" departLane="best" type="motorcycle_motorcycle" departSpeed="max"/>
    <trip id="motorcycle47" depart="211.73" from="-373389574#0" to="1095407472#1" departLane="best" type="motorcycle_motorcycle"/>
    <trip id="motorcycle48" depart="216.24" from="780281639" to="296122995#0" departLane="best" type="motorcycle_motorcycle"/>
    <trip id="motorcycle49" depart="220.74" from="1105526111#1" to="22036538#1" departLane="best" type="motorcycle_motorcycle"/>
    <trip id="motorcycle50" depart="225.25" from="-1408266928" to="-4614987#2" departLane="best" type="motorcycle_motorcycle"/>
    <trip id="motorcycle51" depart="229.75" from="-4615403#1" to="-4613306#0" departLane="best" type="motorcycle_motorcycle"/>
    <trip id="motorcycle52" depart="234.26" from="-1107953482" to="24968394" departLane="best" type="motorcycle_motorcycle" departSpeed="max"/>
    <trip id="motorcycle53" depart="238.76" from="-4614989#1" to="4615497" departLane="best" type="motorcycle_motorcycle"/>
    <trip id="motorcycle54" depart="243.27" from="4790838#1" to="24914141#8" departLane="best" type="motorcycle_motorcycle"/>
    <trip id="motorcycle55" depart="247.77" from="310357283#0" to="-23294727#2" departLane="best" type="motorcycle_motorcycle" departSpeed="max"/>
    <trip id="motorcycle56" depart="252.28" from="-1144528529#1" to="1138696720#0" departLane="best" type="motorcycle_motorcycle"/>
    <trip id="motorcycle57" depart="256.78" from="1105526087" to="1410118066#1" departLane="best" type="motorcycle_motorcycle" departSpeed="max"/>
    <trip id="motorcycle58" depart="261.29" from="728838409" to="-1152689710" departLane="best" type="motorcycle_motorcycle" departSpeed="max"/>
    <trip id="motorcycle59" depart="265.79" from="110464119#1" to="110464119#2" departLane="best" type="motorcycle_motorcycle"/>
    <trip id="motorcycle60" depart="270.30" from="-31619761" to="1323456348#2" departLane="best" type="motorcycle_motorcycle" departSpeed="max"/>
    <trip id="motorcycle61" depart="274.80" from="1105526087" to="1040630268#2" departLane="best" type="motorcycle_motorcycle" departSpeed="max"/>
    <trip id="motorcycle62" depart="279.30" from="-4615497" to="4615497" departLane="best" type="motorcycle_motorcycle" departSpeed="max"/>
    <trip id="motorcycle63" depart="283.81" from="1107953480#1" to="4613300#1" departLane="best" type="motorcycle_motorcycle"/>
    <trip id="motorcycle64" depart="288.31" from="909009143" to="333369841" departLane="best" type="motorcycle_motorcycle"/>
    <trip id="motorcycle65" depart="292.82" from="728838409" to="4615497" departLane="best" type="motorcycle_motorcycle" departSpeed="max"/>
    <trip id="motorcycle66" depart="297.32" from="1104460751#1" to="-1133761630#0" departLane="best" type="motorcycle_motorcycle"/>
    <trip id="motorcycle67" depart="301.83" from="1096709540" to="566764344#1" departLane="best" type="motorcycle_motorcycle"/>
    <trip id="motorcycle68" depart="306.33" from="1133993557#0" to="1133993557#1" departLane="best" type="motorcycle_motorcycle"/>
    <trip id="motorcycle69" depart="310.84" from="566764345" to="780281639" departLane="best" type="motorcycle_motorcycle"/>
    <trip id="motorcycle70" depart="315.34" from="1373064823#0" to="311690284" departLane="best" type="motorcycle_motorcycle" departSpeed="max"/>
    <trip id="motorcycle71" depart="319.85" from="728838409" to="24914141#8" departLane="best" type="motorcycle_motorcycle" departSpeed="max"/>
    <trip id="motorcycle72" depart="324.35" from="-1107953482" to="24914141#8" departLane="best" type="motorcycle_motorcycle" departSpeed="max"/>
    <trip id="motorcycle73" depart="328.86" from="1144528535#0" to="4613299#0" departLane="best" type="motorcycle_motorcycle"/>
    <trip id="motorcycle74" depart="333.36" from="-1107953482" to="-19801644#2" departLane="best" type="motorcycle_motorcycle" departSpeed="max"/>
    <trip id="motorcycle75" depart="337.87" from="-4615404#2" to="-1408266927#0" departLane="best" type="motorcycle_motorcycle"/>
    <trip id="motorcycle76" depart="342.37" from="4615407#1" to="-4615407#3" departLane="best" type="motorcycle_motorcycle"/>
    <trip id="motorcycle77" depart="346.88" from="1105526087" to="24914141#8" departLane="best" type="motorcycle_motorcycle" departSpeed="max"/>
    <trip id="motorcycle78" depart="351.38" from="-1107953482" to="137954786" departLane="best" type="motorcycle_motorcycle" departSpeed="max"/>
    <trip id="motorcycle79" depart="355.89" from="909009143" to="780281639" departLane="best" type="motorcycle_motorcycle"/>
    <trip id="motorcycle80" depart="360.39" from="-1107953482" to="-4613300#0" departLane="best" type="motorcycle_motorcycle" departSpeed="max"/>
    <trip id="motorcycle81" depart="364.90" from="4615404#0" to="4615403#1" departLane="best" type="motorcycle_motorcycle"/>
    <trip id="motorcycle82" depart="369.40" from="329612224" to="311690284" departLane="best" type="motorcycle_motorcycle"/>
    <trip id="motorcycle83" depart="373.91" from="182620302#0" to="4790801" departLane="best" type="motorcycle_motorcycle"/>
    <trip id="motorcycle84" depart="378.41" from="-1323456348#1" to="23294727#0" departLane="best" type="motorcycle_motorcycle"/>
    <trip id="motorcycle85" depart="382.92" from="147646826#0" to="-671026861#0" departLane="best" type="motorcycle_motorcycle" departSpeed="max"/>
    <trip id="motorcycle86" depart="387.42" from="433126110#1" to="-1152689710" departLane="best" type="motorcycle_motorcycle"/>
    <trip id="motorcycle87" depart="391.93" from="1105526087" to="1040630268#1" departLane="best" type="motorcycle_motorcycle" departSpeed="max"/>
    <trip id="motorcycle88" depart="396.43" from="-1040630268#2" to="319339413#4" departLane="best" type="motorcycle_motorcycle"/>
    <trip id="motorcycle89" depart="400.94" from="147646826#0" to="-566764345" departLane="best" type="motorcycle_motorcycle" departSpeed="max"/>
    <trip id="motorcycle90" depart="405.44" from="1105526087" to="-1055302850#1" departLane="best" type="motorcycle_motorcycle" departSpeed="max"/>
    <trip id="motorcycle91" depart="409.95" from="-1107953482" to="4615404#2" departLane="best" type="motorcycle_motorcycle" departSpeed="max"/>
    <trip id="motorcycle92" depart="414.45" from="329612224" to="24914141#8" departLane="best" type="motorcycle_motorcycle"/>
    <trip id="motorcycle93" depart="418.96" from="-182620302#0" to="-1411131710#1" departLane="best" type="motorcycle_motorcycle"/>
    <trip id="motorcycle94" depart="423.46" from="1020548406" to="4615497" departLane="best" type="motorcycle_motorcycle"/>
    <trip id="motorcycle95" depart="427.97" from="310357283#0" to="4613300#0" departLane="best" type="motorcycle_motorcycle" departSpeed="max"/>
    <trip id="motorcycle96" depart="432.47" from="4790810" to="-4613299#3" departLane="best" type="motorcycle_motorcycle" departSpeed="max"/>
    <trip id="motorcycle97" depart="436.98" from="-4615407#5" to="-1152689710" departLane="best" type="motorcycle_motorcycle"/>
    <trip id="motorcycle98" depart="441.48" from="1105526087" to="24968394" departLane="best" type="motorcycle_motorcycle" departSpeed="max"/>
    <trip id="motorcycle99" depart="445.99" from="-22036538#0" to="4615497" departLane="best" type="motorcycle_motorcycle"/>
    <trip id="motorcycle100" depart="450.49" from="310357283#0" to="4615404#1" departLane="best" type="motorcycle_motorcycle" departSpeed="max"/>
    <trip id="motorcycle101" depart="455.00" from="-1083617992#2" to="31619761" departLane="best" type="motorcycle_motorcycle"/>
    <trip id="motorcycle102" depart="459.50" from="310357283#0" to="4613300#2" departLane="best" type="motorcycle_motorcycle" departSpeed="max"/>
    <trip id="motorcycle103" depart="464.01" from="310357283#0" to="-671026861#2" departLane="best" type="motorcycle_motorcycle" departSpeed="max"/>
    <trip id="motorcycle104" depart="468.51" from="309300321#1" to="-1323456348#2" departLane="best" type="motorcycle_motorcycle"/>
    <trip id="motorcycle105" depart="473.02" from="4614987#6" to="4613299#6" departLane="best" type="motorcycle_motorcycle"/>
    <trip id="motorcycle106" depart="477.52" from="-4614987#1" to="333369841" departLane="best" type="motorcycle_motorcycle"/>
    <trip id="motorcycle107" depart="482.03" from="310357283#0" to="-4614989#0" departLane="best" type="motorcycle_motorcycle" departSpeed="max"/>
    <trip id="motorcycle108" depart="486.53" from="-1083617992#1" to="-24149429#1" departLane="best" type="motorcycle_motorcycle"/>
    <trip id="motorcycle109" depart="491.04" from="728838409" to="1040630268#3" departLane="best" type="motorcycle_motorcycle" departSpeed="max"/>
    <trip id="motorcycle110" depart="495.54" from="4790842" to="-137954786" departLane="best" type="motorcycle_motorcycle"/>
    <trip id="motorcycle111" depart="500.05" from="728838409" to="-173197451#6" departLane="best" type="motorcycle_motorcycle" departSpeed="max"/>
    <trip id="motorcycle112" depart="504.55" from="728838409" to="-671026861#1" departLane="best" type="motorcycle_motorcycle" departSpeed="max"/>
    <trip id="motorcycle113" depart="509.06" from="1096709562#1" to="24914141#8" departLane="best" type="motorcycle_motorcycle"/>
    <trip id="motorcycle114" depart="513.56" from="-1040630268#1" to="4615497" departLane="best" type="motorcycle_motorcycle"/>
    <trip id="motorcycle115" depart="518.07" from="1083617992#4" to="-1144528536" departLane="best" type="motorcycle_motorcycle"/>
    <trip id="motorcycle116" depart="522.57" from="182620302#2" to="1101404246#1" departLane="best" type="motorcycle_motorcycle"/>
    <trip id="motorcycle117" depart="527.08" from="24149429#0" to="1083617994" departLane="best" type="motorcycle_motorcycle"/>
    <trip id="motorcycle118" depart="531.58" from="-1411131710#1" to="1133761630#1" departLane="best" type="motorcycle_motorcycle"/>
    <trip id="motorcycle119" depart="536.09" from="4790810" to="24968394" departLane="best" type="motorcycle_motorcycle" departSpeed="max"/>
    <trip id="motorcycle120" depart="540.59" from="-1006033769" to="1055413927" departLane="best" type="motorcycle_motorcycle"/>
    <trip id="motorcycle121" depart="545.09" from="1105526087" to="24914141#8" departLane="best" type="motorcycle_motorcycle" departSpeed="max"/>
    <trip id="motorcycle122" depart="549.60" from="173197451#1" to="1410118066#0" departLane="best" type="motorcycle_motorcycle"/>
    <trip id="motorcycle123" depart="554.10" from="1107953480#1" to="-4613300#0" departLane="best" type="motorcycle_motorcycle"/>
    <trip id="motorcycle124" depart="558.61" from="-1107953482" to="19801644#1" departLane="best" type="motorcycle_motorcycle" departSpeed="max"/>
    <trip id="motorcycle125" depart="563.11" from="147646826#0" to="1104460751#1" departLane="best" type="motorcycle_motorcycle" departSpeed="max"/>
    <trip id="motorcycle126" depart="567.62" from="310357283#0" to="31619761" departLane="best" type="motorcycle_motorcycle" departSpeed="max"/>
    <trip id="motorcycle127" depart="572.12" from="188283090#1" to="-4614987#2" departLane="best" type="motorcycle_motorcycle"/>
    <trip id="motorcycle128" depart="576.63" from="-4615407#3" to="1411145237#1" departLane="best" type="motorcycle_motorcycle"/>
    <trip id="motorcycle129" depart="581.13" from="4484427#1" to="-1152640371#0" departLane="best" type="motorcycle_motorcycle"/>
    <trip id="motorcycle130" depart="585.64" from="1105526087" to="24968394" departLane="best" type="motorcycle_motorcycle" departSpeed="max"/>
    <trip id="motorcycle131" depart="590.14" from="173197451#2" to="-1040630268#3" departLane="best" type="motorcycle_motorcycle"/>
    <trip id="motorcycle132" depart="594.65" from="-4615407#5" to="4484427#1" departLane="best" type="motorcycle_motorcycle"/>
    <trip id="motorcycle133" depart="599.15" from="187103791" to="566764344#3" departLane="best" type="motorcycle_motorcycle"/>
    <trip id="motorcycle134" depart="603.66" from="1410118066#0" to="4790801" departLane="best" type="motorcycle_motorcycle"/>
    <trip id="motorcycle135" depart="608.16" from="4615407#3" to="24968394" departLane="best" type="motorcycle_motorcycle"/>
    <trip id="motorcycle136" depart="612.67" from="4615407#6" to="31619761" departLane="best" type="motorcycle_motorcycle"/>
    <trip id="motorcycle137" depart="617.17" from="-4615407#4" to="276701303#1" departLane="best" type="motorcycle_motorcycle"/>
    <trip id="motorcycle138" depart="621.68" from="147646826#0" to="1020548406" departLane="best" type="motorcycle_motorcycle" departSpeed="max"/>
    <trip id="motorcycle139" depart="626.18" from="-1107953482" to="1055413927" departLane="best" type="motorcycle_motorcycle" departSpeed="max"/>
    <trip id="motorcycle140" depart="630.69" from="-4615403#1" to="311690284" departLane="best" type="motorcycle_motorcycle"/>
    <trip id="motorcycle141" depart="635.19" from="1105526087" to="-4613299#1" departLane="best" type="motorcycle_motorcycle" departSpeed="max"/>
    <trip id="motorcycle142" depart="639.70" from="1105526087" to="4615497" departLane="best" type="motorcycle_motorcycle" departSpeed="max"/>
    <trip id="motorcycle143" depart="644.20" from="1373064823#0" to="311690284" departLane="best" type="motorcycle_motorcycle" departSpeed="max"/>
    <trip id="motorcycle144" depart="648.71" from="1055413927" to="31619761" departLane="best" type="motorcycle_motorcycle"/>
    <trip id="motorcycle145" depart="653.21" from="1105526087" to="31619761" departLane="best" type="motorcycle_motorcycle" departSpeed="max"/>
    <trip id="motorcycle146" depart="657.72" from="-4614987#0" to="-4613306#0" departLane="best" type="motorcycle_motorcycle"/>
    <trip id="motorcycle147" depart="662.22" from="1101404059#0" to="24914141#1" departLane="best" type="motorcycle_motorcycle"/>
    <trip id="motorcycle148" depart="666.73" from="-1083617992#3" to="29054704#1" departLane="best" type="motorcycle_motorcycle"/>
    <trip id="motorcycle149" depart="671.23" from="-110464119#2" to="1107953489" departLane="best" type="motorcycle_motorcycle"/>
    <trip id="motorcycle150" depart="675.74" from="298912688" to="1107953489" departLane="best" type="motorcycle_motorcycle"/>
    <trip id="motorcycle151" depart="680.24" from="296598505" to="333369841" departLane="best" type="motorcycle_motorcycle"/>
    <trip id="motorcycle152" depart="684.75" from="-4615497" to="-1152689710" departLane="best" type="motorcycle_motorcycle" departSpeed="max"/>
    <trip id="motorcycle153" depart="689.25" from="147646826#0" to="319339413#4" departLane="best" type="motorcycle_motorcycle" departSpeed="max"/>
    <trip id="motorcycle154" depart="693.76" from="147646826#1" to="31619761" departLane="best" type="motorcycle_motorcycle"/>
    <trip id="motorcycle155" depart="698.26" from="1373064823#0" to="-4613300#3" departLane="best" type="motorcycle_motorcycle" departSpeed="max"/>
    <trip id="motorcycle156" depart="702.77" from="296122995#0" to="-137954786" departLane="best" type="motorcycle_motorcycle"/>
    <trip id="motorcycle157" depart="707.27" from="310357283#0" to="4790822" departLane="best" type="motorcycle_motorcycle" departSpeed="max"/>
    <trip id="motorcycle158" depart="711.78" from="232070355#0" to="-1152689710" departLane="best" type="motorcycle_motorcycle"/>
    <trip id="motorcycle159" depart="716.28" from="-1144528536" to="319339413#4" departLane="best" type="motorcycle_motorcycle"/>
    <trip id="motorcycle160" depart="720.79" from="457031289" to="24914141#8" departLane="best" type="motorcycle_motorcycle"/>
    <trip id="motorcycle161" depart="725.29" from="-1408266928" to="566764344#1" departLane="best" type="motorcycle_motorcycle"/>
    <trip id="motorcycle162" depart="729.80" from="4484427#1" to="333369841" departLane="best" type="motorcycle_motorcycle"/>
    <trip id="motorcycle163" depart="734.30" from="-1152640371#0" to="4790801" departLane="best" type="motorcycle_motorcycle"/>
    <trip id="motorcycle164" depart="738.81" from="147646826#0" to="333369841" departLane="best" type="motorcycle_motorcycle" departSpeed="max"/>
    <trip id="motorcycle165" depart="743.31" from="26652030#1" to="4790822" departLane="best" type="motorcycle_motorcycle"/>
    <trip id="motorcycle166" depart="747.82" from="-4615497" to="333369841" departLane="best" type="motorcycle_motorcycle" departSpeed="max"/>
    <trip id="motorcycle167" depart="752.32" from="1105526087" to="31619761" departLane="best" type="motorcycle_motorcycle" departSpeed="max"/>
    <trip id="motorcycle168" depart="756.83" from="4615404#1" to="-4615407#1" departLane="best" type="motorcycle_motorcycle"/>
    <trip id="motorcycle169" depart="761.33" from="1138696720#0" to="24968394" departLane="best" type="motorcycle_motorcycle"/>
    <trip id="motorcycle170" depart="765.84" from="457031289" to="-182620302#2" departLane="best" type="motorcycle_motorcycle"/>
    <trip id="motorcycle171" depart="770.34" from="-1055304388" to="4790801" departLane="best" type="motorcycle_motorcycle"/>
    <trip id="motorcycle172" depart="774.85" from="-1107953482" to="311690284" departLane="best" type="motorcycle_motorcycle" departSpeed="max"/>
    <trip id="motorcycle173" depart="779.35" from="222885619#1" to="293527455" departLane="best" type="motorcycle_motorcycle" departSpeed="max"/>
    <trip id="motorcycle174" depart="783.86" from="-1138696720#0" to="-4614987#0" departLane="best" type="motorcycle_motorcycle"/>
    <trip id="motorcycle175" depart="788.36" from="1373064823#0" to="1411131710#1" departLane="best" type="motorcycle_motorcycle" departSpeed="max"/>
    <trip id="motorcycle176" depart="792.87" from="295445243" to="1101404246#1" departLane="best" type="motorcycle_motorcycle"/>
    <trip id="motorcycle177" depart="797.37" from="-31619761" to="-4613300#2" departLane="best" type="motorcycle_motorcycle" departSpeed="max"/>
    <trip id="motorcycle178" depart="801.88" from="-48303485#1" to="-1152689710" departLane="best" type="motorcycle_motorcycle"/>
    <trip id="motorcycle179" depart="806.38" from="728838409" to="23294727#0" departLane="best" type="motorcycle_motorcycle" departSpeed="max"/>
    <trip id="motorcycle180" depart="810.89" from="4614987#2" to="153689810#1" departLane="best" type="motorcycle_motorcycle"/>
    <trip id="motorcycle181" depart="815.39" from="4614987#6" to="24914141#8" departLane="best" type="motorcycle_motorcycle"/>
    <trip id="motorcycle182" depart="819.89" from="-1107953482" to="24968394" departLane="best" type="motorcycle_motorcycle" departSpeed="max"/>
    <trip id="motorcycle183" depart="824.40" from="728838409" to="-1408122424#0" departLane="best" type="motorcycle_motorcycle" departSpeed="max"/>
    <trip id="motorcycle184" depart="828.90" from="299397170" to="24968394" departLane="best" type="motorcycle_motorcycle"/>
    <trip id="motorcycle185" depart="833.41" from="310357283#0" to="-4614987#4" departLane="best" type="motorcycle_motorcycle" departSpeed="max"/>
    <trip id="motorcycle186" depart="837.91" from="1107953480#1" to="4613300#0" departLane="best" type="motorcycle_motorcycle"/>
    <trip id="motorcycle187" depart="842.42" from="147646826#0" to="24968394" departLane="best" type="motorcycle_motorcycle" departSpeed="max"/>
    <trip id="motorcycle188" depart="846.92" from="-4613299#2" to="-4613299#6" departLane="best" type="motorcycle_motorcycle"/>
    <trip id="motorcycle189" depart="851.43" from="-1040630268#1" to="1323456348#3" departLane="best" type="motorcycle_motorcycle"/>
    <trip id="motorcycle190" depart="855.93" from="-4615403#1" to="311690284" departLane="best" type="motorcycle_motorcycle"/>
    <trip id="motorcycle191" depart="860.44" from="309300321#1" to="24968394" departLane="best" type="motorcycle_motorcycle"/>
    <trip id="motorcycle192" depart="864.94" from="177372522" to="4790801" departLane="best" type="motorcycle_motorcycle"/>
    <trip id="motorcycle193" depart="869.45" from="147646826#0" to="4615497" departLane="best" type="motorcycle_motorcycle" departSpeed="max"/>
    <trip id="motorcycle194" depart="873.95" from="296122995#1" to="24914141#5" departLane="best" type="motorcycle_motorcycle"/>
    <trip id="motorcycle195" depart="878.46" from="-1096709562#0" to="1138696720#0" departLane="best" type="motorcycle_motorcycle"/>
    <trip id="motorcycle196" depart="882.96" from="329612532#1" to="24914141#8" departLane="best" type="motorcycle_motorcycle"/>
    <trip id="motorcycle197" depart="887.47" from="552963268" to="909009143" departLane="best" type="motorcycle_motorcycle"/>
    <trip id="motorcycle198" depart="891.97" from="-1096709562#0" to="31619761" departLane="best" type="motorcycle_motorcycle"/>
    <trip id="motorcycle199" depart="896.48" from="4790810" to="-182620302#2" departLane="best" type="motorcycle_motorcycle" departSpeed="max"/>
    <trip id="motorcycle200" depart="900.98" from="1373064823#0" to="26652030#1" departLane="best" type="motorcycle_motorcycle" departSpeed="max"/>
    <trip id="motorcycle201" depart="905.49" from="1055409898#1" to="1104460750" departLane="best" type="motorcycle_motorcycle"/>
    <trip id="motorcycle202" depart="909.99" from="187103792#1" to="4613299#3" departLane="best" type="motorcycle_motorcycle"/>
    <trip id="motorcycle203" depart="914.50" from="1133993557#0" to="1096709540" departLane="best" type="motorcycle_motorcycle"/>
    <trip id="motorcycle204" depart="919.00" from="110464119#2" to="19801644#1" departLane="best" type="motorcycle_motorcycle"/>
    <trip id="motorcycle205" depart="923.51" from="728838409" to="297310646#1" departLane="best" type="motorcycle_motorcycle" departSpeed="max"/>
    <trip id="motorcycle206" depart="928.01" from="1105526111#1" to="311690284" departLane="best" type="motorcycle_motorcycle"/>
    <trip id="motorcycle207" depart="932.52" from="-1408266928" to="48303485#0" departLane="best" type="motorcycle_motorcycle"/>
    <trip id="motorcycle208" depart="937.02" from="728838409" to="4615497" departLane="best" type="motorcycle_motorcycle" departSpeed="max"/>
    <trip id="motorcycle209" depart="941.53" from="1134090050" to="-1408122424#0" departLane="best" type="motorcycle_motorcycle"/>
    <trip id="motorcycle210" depart="946.03" from="325818854" to="177372522" departLane="best" type="motorcycle_motorcycle"/>