<?xml version="1.0" encoding="UTF-8"?>

<!-- generated on 2025-06-30 10:43:10.873680 by osmWebWizard.py v1_23_1+0000-676720d13f6
<configuration>
    <net-file value="C:\Users\Gagana\Sumo\2025-06-30-10-42-46\osm.net.xml.gz"/>
    <output-trip-file value="C:\Users\Gagana\Sumo\2025-06-30-10-42-46\osm.truck.trips.xml"/>
    <route-file value="C:\Users\Gagana\Sumo\2025-06-30-10-42-46\osm.truck.rou.xml"/>
    <prefix value="truck"/>
    <trip-attributes value="departLane=&quot;best&quot;"/>
    <fringe-start-attributes value="departSpeed=&quot;max&quot;"/>
    <vehicle-class value="truck"/>
    <fringe-factor value="5"/>
    <edge-permission value="truck"/>
    <via-edge-types value="highway.motorway,highway.motorway_link,highway.trunk_link,highway.primary_link,highway.secondary_link,highway.tertiary_link"/>
    <min-distance value="600.0"/>
    <min-distance.fringe value="10.0"/>
    <remove-loops value="True"/>
    <validate value="True"/>
    <insertion-density value="20.0"/>
</configuration>
-->

<routes xmlns:xsi="http://www.w3.org/2001/XMLSchema-instance" xsi:noNamespaceSchemaLocation="http://sumo.dlr.de/xsd/routes_file.xsd">
    <vType id="truck_truck" vClass="truck"/>
    <trip id="truck0" depart="0.00" from="160971191#0" to="-1132163645#3" departLane="best" type="truck_truck"/>
    <trip id="truck1" depart="4.34" from="-375311158#0" to="-4597322#2" departLane="best" type="truck_truck"/>
    <trip id="truck2" depart="8.69" from="327756248#0" to="309644163#0" departLane="best" type="truck_truck"/>
    <trip id="truck3" depart="13.03" from="-1110748916" to="-4474915#0" departLane="best" type="truck_truck" departSpeed="max"/>
    <trip id="truck4" depart="17.38" from="-24242838#3" to="166260138#0" departLane="best" type="truck_truck"/>
    <trip id="truck5" depart="20" from="37289167#7" to="1123184404#0" departLane="best" type="truck_truck" departSpeed="max"/>
    <trip id="truck6" depart="26.06" from="-4597351#1" to="-25042806#1" departLane="best" type="truck_truck" departSpeed="max"/>
    <trip id="truck7" depart="30.41" from="-1147413276" to="-1199889721#0" departLane="best" type="truck_truck" departSpeed="max"/>
    <trip id="truck8" depart="34.75" from="43376693#2" to="37289167#7" departLane="best" type="truck_truck"/>
    <trip id="truck9" depart="39.10" from="-508410318#0" to="1252160881#0" departLane="best" type="truck_truck"/>
    <trip id="truck10" depart="43.44" from="4474915#1" to="22972470#3" departLane="best" type="truck_truck"/>
    <trip id="truck11" depart="47.78" from="24214089#5" to="-1147413274" departLane="best" type="truck_truck"/>
    <trip id="truck12" depart="52.13" from="-1147413272#1" to="-4597335#1" departLane="best" type="truck_truck" departSpeed="max"/>
    <trip id="truck13" depart="56.47" from="-1147767890" to="-55495482#1" departLane="best" type="truck_truck" departSpeed="max"/>
    <trip id="truck14" depart="60.82" from="884209962#0" to="24214089#2" departLane="best" type="truck_truck"/>
    <trip id="truck15" depart="65.16" from="1152723792#1" to="309644167" departLane="best" type="truck_truck"/>
    <trip id="truck16" depart="69.50" from="4887463" to="1147755006" departLane="best" type="truck_truck"/>
    <trip id="truck17" depart="73.85" from="-356359316#2" to="-4611711" departLane="best" type="truck_truck"/>
    <trip id="truck18" depart="78.19" from="1152723801" to="-475533030" departLane="best" type="truck_truck"/>
    <trip id="truck19" depart="82.54" from="11845184#3" to="508410319" departLane="best" type="truck_truck"/>
    <trip id="truck20" depart="86.88" from="9657820#1" to="1152723815" departLane="best" type="truck_truck"/>
    <trip id="truck21" depart="91.22" from="-1147767968#0" to="23755718#0" departLane="best" type="truck_truck"/>
    <trip id="truck22" depart="95.57" from="404598738#0" to="1132165078#1" departLane="best" type="truck_truck"/>
    <trip id="truck23" depart="99.91" from="9657820#0" to="1191472404" departLane="best" type="truck_truck"/>
    <trip id="truck24" depart="104.26" from="-1079386620#2" to="36259516#0" departLane="best" type="truck_truck" departSpeed="max"/>
    <trip id="truck25" depart="108.60" from="23017852#0" to="1228469479" departLane="best" type="truck_truck"/>
    <trip id="truck26" depart="112.94" from="-375311153" to="24214089#2" departLane="best" type="truck_truck" departSpeed="max"/>
    <trip id="truck27" depart="117.29" from="-1151333056" to="1147413234#2" departLane="best" type="truck_truck"/>
    <trip id="truck28" depart="121.63" from="1057179327#0" to="707100745#0" departLane="best" type="truck_truck"/>
    <trip id="truck29" depart="125.97" from="4597354#0" to="-475533030" departLane="best" type="truck_truck" departSpeed="max"/>
    <trip id="truck30" depart="130.32" from="710761408#0" to="48859715#0" departLane="best" type="truck_truck" departSpeed="max"/>
    <trip id="truck31" depart="134.66" from="48859715#0" to="47755711#3" departLane="best" type="truck_truck"/>
    <trip id="truck32" depart="139.01" from="1228562464#1" to="-25041360" departLane="best" type="truck_truck"/>
    <trip id="truck33" depart="143.35" from="375311153" to="1191472409#1" departLane="best" type="truck_truck"/>
    <trip id="truck34" depart="147.69" from="-4588215#7" to="-1151333056" departLane="best" type="truck_truck"/>
    <trip id="truck35" depart="152.04" from="4597354#0" to="681299268" departLane="best" type="truck_truck" departSpeed="max"/>
    <trip id="truck36" depart="156.38" from="-1147413272#1" to="1151333059#1" departLane="best" type="truck_truck" departSpeed="max"/>
    <trip id="truck37" depart="160.73" from="-1136657266#1" to="4396302#1" departLane="best" type="truck_truck"/>
    <trip id="truck38" depart="165.07" from="36259509#0" to="-23017852#0" departLane="best" type="truck_truck"/>
    <trip id="truck39" depart="169.41" from="110785555#0" to="1252160879" departLane="best" type="truck_truck"/>
    <trip id="truck40" depart="173.76" from="-694745015" to="-4588215#6" departLane="best" type="truck_truck"/>
    <trip id="truck41" depart="178.10" from="1149365723" to="37289167#7" departLane="best" type="truck_truck" departSpeed="max"/>
    <trip id="truck42" depart="182.45" from="-23755718#1" to="-707107510#2" departLane="best" type="truck_truck"/>
    <trip id="truck43" depart="186.79" from="9536457#1" to="24242835" departLane="best" type="truck_truck"/>
    <trip id="truck44" depart="191.13" from="-81113584#2" to="1164624634" departLane="best" type="truck_truck"/>
    <trip id="truck45" depart="195.48" from="-1151333062" to="-4597322#3" departLane="best" type="truck_truck"/>
    <trip id="truck46" depart="199.82" from="-4597351#1" to="16374191#0" departLane="best" type="truck_truck" departSpeed="max"/>
    <trip id="truck47" depart="204.17" from="-25042806#1" to="-4597322#0" departLane="best" type="truck_truck"/>
    <trip id="truck48" depart="208.51" from="-25042806#1" to="542983664" departLane="best" type="truck_truck"/>
    <trip id="truck49" depart="212.85" from="-305640730#1" to="28108856#0" departLane="best" type="truck_truck" departSpeed="max"/>
    <trip id="truck50" depart="217.20" from="-24242835" to="-23017853" departLane="best" type="truck_truck" departSpeed="max"/>
    <trip id="truck51" depart="221.54" from="66071387#4" to="159081774#0" departLane="best" type="truck_truck"/>
    <trip id="truck52" depart="225.89" from="1105574289#1" to="4588215#4" departLane="best" type="truck_truck"/>
    <trip id="truck53" depart="230.23" from="-1147413289#2" to="1136657264#2" departLane="best" type="truck_truck"/>
    <trip id="truck54" depart="234.57" from="-694745015" to="1147767890" departLane="best" type="truck_truck"/>
    <trip id="truck55" depart="238.92" from="-65040946#3" to="-909825429" departLane="best" type="truck_truck"/>
    <trip id="truck56" depart="243.26" from="4597324#3" to="-4611712" departLane="best" type="truck_truck"/>
    <trip id="truck57" depart="247.61" from="-197160273#1" to="1147413274" departLane="best" type="truck_truck"/>
    <trip id="truck58" depart="251.95" from="-851251671#2" to="475533028" departLane="best" type="truck_truck"/>
    <trip id="truck59" depart="256.29" from="98399537" to="4611710" departLane="best" type="truck_truck"/>
    <trip id="truck60" depart="260.64" from="4588219#2" to="-327756257#1" departLane="best" type="truck_truck"/>
    <trip id="truck61" depart="264.98" from="-508410318#1" to="851251671#3" departLane="best" type="truck_truck"/>
    <trip id="truck62" depart="269.33" from="1057180954#1" to="1132165078#1" departLane="best" type="truck_truck"/>
    <trip id="truck63" depart="273.67" from="710761406#2" to="9536457#1" departLane="best" type="truck_truck"/>
    <trip id="truck64" depart="278.01" from="753316505" to="160971191#0" departLane="best" type="truck_truck"/>
    <trip id="truck65" depart="282.36" from="1149365723" to="404598741#1" departLane="best" type="truck_truck" departSpeed="max"/>
    <trip id="truck66" depart="286.70" from="-1136657257" to="160971198#0" departLane="best" type="truck_truck" departSpeed="max"/>
    <trip id="truck67" depart="291.05" from="1126488562" to="4611886" departLane="best" type="truck_truck"/>
    <trip id="truck68" depart="295.39" from="-1199889721#0" to="728299830#0" departLane="best" type="truck_truck"/>
    <trip id="truck69" depart="299.73" from="-1147413272#1" to="-375459783#0" departLane="best" type="truck_truck" departSpeed="max"/>
    <trip id="truck70" depart="304.08" from="4611774#4" to="-4611710" departLane="best" type="truck_truck"/>
    <trip id="truck71" depart="308.42" from="1211324961" to="22972470#3" departLane="best" type="truck_truck" departSpeed="max"/>
    <trip id="truck72" depart="312.77" from="-67627353" to="160971198#0" departLane="best" type="truck_truck"/>
    <trip id="truck73" depart="317.11" from="-23755720#1" to="356359316#1" departLane="best" type="truck_truck"/>
    <trip id="truck74" depart="321.45" from="-305640730#1" to="1123184403" departLane="best" type="truck_truck" departSpeed="max"/>
    <trip id="truck75" depart="325.80" from="-4597322#2" to="43376693#1" departLane="best" type="truck_truck"/>
    <trip id="truck76" depart="330.14" from="-1147413271#1" to="-4588215#7" departLane="best" type="truck_truck" departSpeed="max"/>
    <trip id="truck77" depart="334.49" from="-356359316#3" to="66071387#3" departLane="best" type="truck_truck"/>
    <trip id="truck78" depart="338.83" from="4600250" to="48859716" departLane="best" type="truck_truck"/>
    <trip id="truck79" depart="343.17" from="-475533030" to="-28402260#2" departLane="best" type="truck_truck"/>
    <trip id="truck80" depart="347.52" from="4579366" to="327979624" departLane="best" type="truck_truck"/>
    <trip id="truck81" depart="351.86" from="1249342904#1" to="860241087#0" departLane="best" type="truck_truck"/>
    <trip id="truck82" depart="356.20" from="168928174#1" to="-109902441" departLane="best" type="truck_truck"/>
    <trip id="truck83" depart="360.55" from="-1152723814#0" to="-16374393#1" departLane="best" type="truck_truck"/>
    <trip id="truck84" depart="364.89" from="-1147767890" to="1252160881#1" departLane="best" type="truck_truck" departSpeed="max"/>
    <trip id="truck85" depart="369.24" from="-375311153" to="197160273#2" departLane="best" type="truck_truck" departSpeed="max"/>
    <trip id="truck86" depart="373.58" from="25042806#1" to="-4579366" departLane="best" type="truck_truck"/>
    <trip id="truck87" depart="377.92" from="159081776" to="-47755711#0" departLane="best" type="truck_truck"/>
    <trip id="truck88" depart="382.27" from="1110759207#0" to="542983664" departLane="best" type="truck_truck" departSpeed="max"/>
    <trip id="truck89" depart="386.61" from="4588219#1" to="-11845130" departLane="best" type="truck_truck"/>
    <trip id="truck90" depart="390.96" from="327979621#0" to="1252160881#0" departLane="best" type="truck_truck"/>
    <trip id="truck91" depart="395.30" from="-710761407#2" to="-1105574288#1" departLane="best" type="truck_truck"/>
    <trip id="truck92" depart="399.64" from="-1152880160#0" to="-23017852#0" departLane="best" type="truck_truck"/>
    <trip id="truck93" depart="403.99" from="-4588215#8" to="531952542#1" departLane="best" type="truck_truck"/>
    <trip id="truck94" depart="408.33" from="461905068#1" to="-4588215#4" departLane="best" type="truck_truck"/>
    <trip id="truck95" depart="412.68" from="-1191472404" to="65040946#6" departLane="best" type="truck_truck"/>
    <trip id="truck96" depart="417.02" from="-4597335#3" to="65040958#0" departLane="best" type="truck_truck" departSpeed="max"/>
    <trip id="truck97" depart="421.36" from="43348945#0" to="475533030" departLane="best" type="truck_truck"/>
    <trip id="truck98" depart="425.71" from="435042786" to="-47755711#2" departLane="best" type="truck_truck"/>
    <trip id="truck99" depart="430.05" from="375459783#1" to="-1311664010#2" departLane="best" type="truck_truck"/>
    <trip id="truck100" depart="434.40" from="-24242838#5" to="4597335#3" departLane="best" type="truck_truck"/>
    <trip id="truck101" depart="438.74" from="109781892" to="-707100246" departLane="best" type="truck_truck" departSpeed="max"/>
    <trip id="truck102" depart="443.08" from="42821876" to="-4597325#0" departLane="best" type="truck_truck" departSpeed="max"/>
    <trip id="truck103" depart="447.43" from="751604619#1" to="-65040946#0" departLane="best" type="truck_truck"/>
    <trip id="truck104" depart="451.77" from="160971194#0" to="1123184404#0" departLane="best" type="truck_truck"/>
    <trip id="truck105" depart="456.12" from="751604617" to="-47755711#1" departLane="best" type="truck_truck"/>
    <trip id="truck106" depart="460.46" from="-1147767966#0" to="1147413234#2" departLane="best" type="truck_truck"/>
    <trip id="truck107" depart="464.80" from="309644159#0" to="-710761407#2" departLane="best" type="truck_truck"/>
    <trip id="truck108" depart="469.15" from="-508410319" to="159081777#1" departLane="best" type="truck_truck" departSpeed="max"/>
    <trip id="truck109" depart="473.49" from="1149365723" to="36259509#0" departLane="best" type="truck_truck" departSpeed="max"/>
    <trip id="truck110" depart="477.84" from="-461905067#2" to="-1152723794#0" departLane="best" type="truck_truck"/>
    <trip id="truck111" depart="482.18" from="197160273#2" to="-851251671#2" departLane="best" type="truck_truck"/>
    <trip id="truck112" depart="486.52" from="-4588219#0" to="1124763679#0" departLane="best" type="truck_truck"/>
    <trip id="truck113" depart="490.87" from="475533029" to="22972470#0" departLane="best" type="truck_truck"/>
    <trip id="truck114" depart="495.21" from="-4588215#2" to="1252160879" departLane="best" type="truck_truck"/>
    <trip id="truck115" depart="499.56" from="168935757#0" to="1147767890" departLane="best" type="truck_truck"/>
    <trip id="truck116" depart="503.90" from="-851251671#0" to="-4588215#7" departLane="best" type="truck_truck"/>
    <trip id="truck117" depart="508.24" from="1105574289#1" to="531952567" departLane="best" type="truck_truck"/>
    <trip id="truck118" depart="512.59" from="42821876" to="-327979621#0" departLane="best" type="truck_truck" departSpeed="max"/>
    <trip id="truck119" depart="516.93" from="-1147413272#1" to="1152880161" departLane="best" type="truck_truck" departSpeed="max"/>
    <trip id="truck120" depart="521.28" from="22972469#0" to="-4597322#3" departLane="best" type="truck_truck"/>
    <trip id="truck121" depart="525.62" from="-1147767890" to="1132166702#0" departLane="best" type="truck_truck" departSpeed="max"/>
    <trip id="truck122" depart="529.96" from="1136657264#2" to="-1147413289#2" departLane="best" type="truck_truck"/>
    <trip id="truck123" depart="534.31" from="-327756248#3" to="4611869#5" departLane="best" type="truck_truck" departSpeed="max"/>
    <trip id="truck124" depart="538.65" from="1073015934" to="4597322#1" departLane="best" type="truck_truck"/>
    <trip id="truck125" depart="543.00" from="199847244#0" to="860241087#0" departLane="best" type="truck_truck"/>
    <trip id="truck126" depart="547.34" from="25042806#2" to="1152723814#1" departLane="best" type="truck_truck"/>
    <trip id="truck127" depart="551.68" from="4474915#2" to="1252160879" departLane="best" type="truck_truck"/>
    <trip id="truck128" depart="556.03" from="461905068#0" to="389101374" departLane="best" type="truck_truck"/>
    <trip id="truck129" depart="560.37" from="1105574292" to="-461905068#0" departLane="best" type="truck_truck"/>
    <trip id="truck130" depart="564.72" from="-327756248#3" to="24214089#0" departLane="best" type="truck_truck" departSpeed="max"/>
    <trip id="truck131" depart="569.06" from="-375311153" to="-751604619#0" departLane="best" type="truck_truck" departSpeed="max"/>
    <trip id="truck132" depart="573.40" from="-28402260#2" to="327756248#3" departLane="best" type="truck_truck"/>
    <trip id="truck133" depart="577.75" from="24242838#0" to="-1151333059#0" departLane="best" type="truck_truck"/>
    <trip id="truck134" depart="582.09" from="-67627347" to="-4588215#2" departLane="best" type="truck_truck"/>
    <trip id="truck135" depart="586.43" from="-67627353" to="542983664" departLane="best" type="truck_truck"/>
    <trip id="truck136" depart="590.78" from="11845184#3" to="327756248#3" departLane="best" type="truck_truck"/>
    <trip id="truck137" depart="595.12" from="4597322#2" to="4396302#1" departLane="best" type="truck_truck"/>
    <trip id="truck138" depart="599.47" from="-508410319" to="-1079386620#0" departLane="best" type="truck_truck" departSpeed="max"/>
    <trip id="truck139" depart="603.81" from="-4611774#0" to="43376693#2" departLane="best" type="truck_truck"/>
    <trip id="truck140" depart="608.15" from="-67627353" to="404598741#1" departLane="best" type="truck_truck"/>
    <trip id="truck141" depart="612.50" from="1151333056" to="197160273#1" departLane="best" type="truck_truck"/>
    <trip id="truck142" depart="616.84" from="110032714#1" to="-23017852#0" departLane="best" type="truck_truck"/>
    <trip id="truck143" depart="621.19" from="1252995263" to="-1132164863" departLane="best" type="truck_truck" departSpeed="max"/>
    <trip id="truck144" depart="625.53" from="-1110750064" to="24214089#4" departLane="best" type="truck_truck"/>
    <trip id="truck145" depart="629.87" from="-1152723819" to="1147755006" departLane="best" type="truck_truck" departSpeed="max"/>
    <trip id="truck146" depart="634.22" from="328064919#0" to="4597351#1" departLane="best" type="truck_truck" departSpeed="max"/>
    <trip id="truck147" depart="638.56" from="-1105574289#1" to="1228469487" departLane="best" type="truck_truck"/>
    <trip id="truck148" depart="642.91" from="98399537" to="-9657820#1" departLane="best" type="truck_truck"/>
    <trip id="truck149" depart="647.25" from="1152723807" to="-4588219#1" departLane="best" type="truck_truck"/>
    <trip id="truck150" depart="651.59" from="24214089#1" to="4396302#1" departLane="best" type="truck_truck"/>
    <trip id="truck151" depart="655.94" from="-1311664010#2" to="199847244#0" departLane="best" type="truck_truck"/>
    <trip id="truck152" depart="660.28" from="-1147767966#0" to="-1132163645#7" departLane="best" type="truck_truck"/>
    <trip id="truck153" depart="664.63" from="-4588222#0" to="309644163#0" departLane="best" type="truck_truck"/>
    <trip id="truck154" depart="668.97" from="710761406#2" to="1123184404#0" departLane="best" type="truck_truck"/>
    <trip id="truck155" depart="673.31" from="25041996#0" to="-1152723807" departLane="best" type="truck_truck"/>
    <trip id="truck156" depart="677.66" from="4588222#1" to="181472197#1" departLane="best" type="truck_truck"/>
    <trip id="truck157" depart="682.00" from="375311157#0" to="-9536457#1" departLane="best" type="truck_truck"/>
    <trip id="truck158" depart="686.35" from="-710761407#2" to="1105574288#1" departLane="best" type="truck_truck"/>
    <trip id="truck159" depart="690.69" from="1132163645#1" to="-9536457#0" departLane="best" type="truck_truck"/>
    <trip id="truck160" depart="695.03" from="4588222#0" to="4597336" departLane="best" type="truck_truck"/>
    <trip id="truck161" depart="699.38" from="-1147767890" to="728299830#0" departLane="best" type="truck_truck" departSpeed="max"/>
    <trip id="truck162" depart="703.72" from="327462543#0" to="751604619#0" departLane="best" type="truck_truck"/>
    <trip id="truck163" depart="708.07" from="-375311153" to="4597324#3" departLane="best" type="truck_truck" departSpeed="max"/>
    <trip id="truck164" depart="712.41" from="-753316505" to="375311153" departLane="best" type="truck_truck"/>
    <trip id="truck165" depart="716.75" from="-375311153" to="4611886" departLane="best" type="truck_truck" departSpeed="max"/>
    <trip id="truck166" depart="721.10" from="4474915#2" to="-1152876524#2" departLane="best" type="truck_truck"/>
    <trip id="truck167" depart="725.44" from="-508410318#1" to="-1132164893#0" departLane="best" type="truck_truck"/>
    <trip id="truck168" depart="729.79" from="24214089#2" to="-55495482#0" departLane="best" type="truck_truck"/>
    <trip id="truck169" depart="734.13" from="-1079386620#2" to="694745014" departLane="best" type="truck_truck" departSpeed="max"/>
    <trip id="truck170" depart="738.47" from="-1147413272#1" to="36259509#0" departLane="best" type="truck_truck" departSpeed="max"/>
    <trip id="truck171" depart="742.82" from="1110759207#0" to="435164424" departLane="best" type="truck_truck" departSpeed="max"/>
    <trip id="truck172" depart="747.16" from="1110759207#0" to="4588219#1" departLane="best" type="truck_truck" departSpeed="max"/>
    <trip id="truck173" depart="751.51" from="-1147413276" to="-4597322#1" departLane="best" type="truck_truck" departSpeed="max"/>
    <trip id="truck174" depart="755.85" from="23755720#1" to="-707100246" departLane="best" type="truck_truck"/>
    <trip id="truck175" depart="760.19" from="1147755011" to="1132166702#0" departLane="best" type="truck_truck"/>
    <trip id="truck176" depart="764.54" from="24214089#4" to="-508410318#0" departLane="best" type="truck_truck"/>
    <trip id="truck177" depart="768.88" from="-327756248#3" to="-181472197#0" departLane="best" type="truck_truck" departSpeed="max"/>
    <trip id="truck178" depart="773.23" from="851251671#0" to="11845184#3" departLane="best" type="truck_truck"/>
    <trip id="truck179" depart="777.57" from="-23017852#0" to="-4597324#2" departLane="best" type="truck_truck"/>
    <trip id="truck180" depart="781.91" from="-159081777#3" to="-1110750064" departLane="best" type="truck_truck"/>
    <trip id="truck181" depart="786.26" from="1147767968#2" to="-531952542#0" departLane="best" type="truck_truck"/>
    <trip id="truck182" depart="790.60" from="82488124" to="1252160881#1" departLane="best" type="truck_truck"/>
    <trip id="truck183" depart="794.95" from="1105574288#0" to="1147413271#0" departLane="best" type="truck_truck"/>
    <trip id="truck184" depart="799.29" from="-168935757#0" to="-1147648945#0" departLane="best" type="truck_truck"/>
    <trip id="truck185" depart="803.63" from="671587649" to="1149365724" departLane="best" type="truck_truck"/>
    <trip id="truck186" depart="807.98" from="1152723806" to="-694745015" departLane="best" type="truck_truck"/>
    <trip id="truck187" depart="812.32" from="9536457#0" to="-168935757#1" departLane="best" type="truck_truck"/>
    <trip id="truck188" depart="816.66" from="389101374" to="-4597324#0" departLane="best" type="truck_truck"/>
    <trip id="truck189" depart="821.01" from="-851251671#0" to="461905068#2" departLane="best" type="truck_truck"/>
    <trip id="truck190" depart="825.35" from="884209962#0" to="-707100246" departLane="best" type="truck_truck"/>
    <trip id="truck191" depart="829.70" from="327756257#2" to="681299268" departLane="best" type="truck_truck"/>
    <trip id="truck192" depart="834.04" from="-23755731#2" to="-4588215#5" departLane="best" type="truck_truck"/>
    <trip id="truck193" depart="838.38" from="-15388688" to="-1152723807" departLane="best" type="truck_truck" departSpeed="max"/>
    <trip id="truck194" depart="842.73" from="1199889721#1" to="-66071387#4" departLane="best" type="truck_truck"/>
    <trip id="truck195" depart="847.07" from="24214089#4" to="1147648944" departLane="best" type="truck_truck"/>
    <trip id="truck196" depart="851.42" from="181472197#1" to="66071387#3" departLane="best" type="truck_truck"/>
    <trip id="truck197" depart="855.76" from="-707107510#2" to="1249342904#1" departLane="best" type="truck_truck"/>
    <trip id="truck198" depart="860.10" from="160971204#0" to="542983664" departLane="best" type="truck_truck"/>
    <trip id="truck199" depart="864.45" from="-1249342904#0" to="-707100246" departLane="best" type="truck_truck"/>
    <trip id="truck200" depart="868.79" from="-1124763679#2" to="1136657266#1" departLane="best" type="truck_truck" departSpeed="max"/>
    <trip id="truck201" depart="873.14" from="-1147413276" to="751604616" departLane="best" type="truck_truck" departSpeed="max"/>
    <trip id="truck202" depart="877.48" from="707100246" to="98399537" departLane="best" type="truck_truck"/>
    <trip id="truck203" depart="881.82" from="11845184#4" to="23755731#2" departLane="best" type="truck_truck"/>
    <trip id="truck204" depart="886.17" from="1116358457" to="-11845130" departLane="best" type="truck_truck"/>
    <trip id="truck205" depart="890.51" from="-4611711" to="-85255869#1" departLane="best" type="truck_truck"/>
    <trip id="truck206" depart="894.86" from="199847247#0" to="461905068#0" departLane="best" type="truck_truck"/>
    <trip id="truck207" depart="899.20" from="-4597335#3" to="327756248#3" departLane="best" type="truck_truck" departSpeed="max"/>
    <trip id="truck208" depart="903.54" from="4396109" to="1252160879" departLane="best" type="truck_truck"/>
    <trip id="truck209" depart="907.89" from="1057180954#1" to="-710761407#2" departLane="best" type="truck_truck"/>
    <trip id="truck210" depart="912.23" from="-65040946#4" to="1152880160#0" departLane="best" type="truck_truck"/>
    <trip id="truck211" depart="916.58" from="860241087#1" to="24242838#5" departLane="best" type="truck_truck"/>
    <trip id="truck212" depart="920.92" from="-181472197#0" to="1079386620#1" departLane="best" type="truck_truck"/>
    <trip id="truck213" depart="925.26" from="32938173#1" to="23017853" departLane="best" type="truck_truck"/>
    <trip id="truck214" depart="929.61" from="1228562464#1" to="-4597354#1" departLane="best" type="truck_truck"/>
    <trip id="truck215" depart="933.95" from="-1225123597" to="1252160879" departLane="best" type="truck_truck"/>
    <trip id="truck216" depart="938.30" from="1151333059#0" to="-1187575246" departLane="best" type="truck_truck"/>
    <trip id="truck217" depart="942.64" from="109781892" to="-168935757#0" departLane="best" type="truck_truck" departSpeed="max"/>
    <trip id="truck218" depart="946.98" from="453379904" to="1152723812#0" departLane="best" type="truck_truck"/>
    <trip id="truck219" depart="951.33" from="25042806#0" to="1152723815" departLane="best" type="truck_truck"/>
    <trip id="truck220" depart="955.67" from="-375311155#2" to="4600250" departLane="best" type="truck_truck"/>
    <trip id="truck221" depart="960.02" from="85255869#0" to="-4600250" departLane="best" type="truck_truck" departSpeed="max"/>
    <trip id="truck222" depart="964.36" from="531952567" to="1152723814#1" departLane="best" type="truck_truck"/>
    <trip id="truck223" depart="968.70" from="4597354#0" to="475533030" departLane="best" type="truck_truck" departSpeed="max"/>
    <trip id="truck224" depart="973.05" from="-375311158#3" to="4588215#8" departLane="best" type="truck_truck"/>
    <trip id="truck225" depart="977.39" from="1132164893#1" to="4597335#3" departLane="best" type="truck_truck"/>
    <trip id="truck226" depart="981.74" from="11845212" to="98399537" departLane="best" type="truck_truck"/>
    <trip id="truck227" depart="986.08" from="1110759207#0" to="-24242838#5" departLane="best" type="truck_truck" departSpeed="max"/>
    <trip id="truck228" depart="990.42" from="1149365723" to="-9536457#0" departLane="best" type="truck_truck" departSpeed="max"/>
    <trip id="truck229" depart="994.77" from="1151333059#0" to="1249342904#0" departLane="best" type="truck_truck"/>
    <trip id="truck230" depart="999.11" from="-181472197#0" to="327756257#1" departLane="best" type="truck_truck"/>
    <trip id="truck231" depart="1003.46" from="1152876522#1" to="-4597335#2" departLane="best" type="truck_truck"/>
    <trip id="truck232" depart="1007.80" from="37289167#4" to="-1147413234#0" departLane="best" type="truck_truck"/>
    <trip id="truck233" depart="1012.14" from="197160273#1" to="4597335#3" departLane="best" type="truck_truck"/>
    <trip id="truck234" depart="1016.49" from="85255869#0" to="1152723806" departLane="best" type="truck_truck" departSpeed="max"/>
    <trip id="truck235" depart="1020.83" from="4597354#0" to="1147413271#0" departLane="best" type="truck_truck" departSpeed="max"/>
    <trip id="truck236" depart="1025.18" from="1147413288#1" to="1147755006" departLane="best" type="truck_truck"/>
    <trip id="truck237" depart="1029.52" from="28108856#0" to="1124763679#0" departLane="best" type="truck_truck"/>
    <trip id="truck238" depart="1033.86" from="1105574288#0" to="753316505" departLane="best" type="truck_truck"/>
    <trip id="truck239" depart="1038.21" from="-4597351#1" to="327756248#3" departLane="best" type="truck_truck" departSpeed="max"/>
    <trip id="truck240" depart="1042.55" from="4588224#1" to="461905068#1" departLane="best" type="truck_truck"/>