<?xml version="1.0" encoding="UTF-8"?>

<!-- generated on 2025-06-30 12:39:09 by Eclipse SUMO netconvert Version 1.23.1
<netconvertConfiguration xmlns:xsi="http://www.w3.org/2001/XMLSchema-instance" xsi:noNamespaceSchemaLocation="http://sumo.dlr.de/xsd/netconvertConfiguration.xsd">

    <input>
        <sumo-net-file value="osm.net.xml"/>
    </input>

    <output>
        <output-file value="osm_opposite.net.xml"/>
        <output.street-names value="true"/>
    </output>

    <processing>
        <geometry.max-segment-length value="20"/>
        <geometry.min-radius.fix.railways value="false"/>
        <geometry.avoid-overlap value="false"/>
        <geometry.max-grade.fix value="false"/>
        <offset.disable-normalization value="true"/>
        <opposites.guess value="true"/>
        <opposites.guess.fix-lengths value="true"/>
        <lefthand value="0"/>
    </processing>

    <junctions>
        <no-turnarounds value="true"/>
        <junctions.corner-detail value="5"/>
        <junctions.limit-turn-speed value="5.50"/>
        <rectangular-lane-cut value="0"/>
    </junctions>

    <pedestrian>
        <walkingareas value="0"/>
    </pedestrian>

</netconvertConfiguration>
-->

<net version="1.20" junctionCornerDetail="5" limitTurnSpeed="5.50" avoidOverlap="0" xmlns:xsi="http://www.w3.org/2001/XMLSchema-instance" xsi:noNamespaceSchemaLocation="http://sumo.dlr.de/xsd/net_file.xsd">

    <location netOffset="-388993.56,-5818578.04" convBoundary="0.00,0.00,2236.85,872.98" origBoundary="13.364365,52.506437,13.397173,52.513951" projParameter="+proj=utm +zone=33 +ellps=WGS84 +datum=WGS84 +units=m +no_defs"/>

    <type id="highway.cycleway" priority="1" numLanes="1" speed="5.56" allow="bicycle" oneway="0" width="2.00"/>
    <type id="highway.footway" priority="1" numLanes="1" speed="2.78" allow="pedestrian" oneway="1" width="2.00"/>
    <type id="highway.living_street" priority="2" numLanes="1" speed="2.78" disallow="tram rail_urban rail rail_electric rail_fast ship container cable_car subway aircraft wheelchair scooter drone" oneway="0"/>
    <type id="highway.pedestrian" priority="1" numLanes="1" speed="2.78" allow="pedestrian" oneway="1" width="2.00"/>
    <type id="highway.primary" priority="12" numLanes="2" speed="27.78" disallow="tram rail_urban rail rail_electric rail_fast ship container cable_car subway aircraft wheelchair scooter drone" oneway="0"/>
    <type id="highway.residential" priority="3" numLanes="1" speed="13.89" disallow="tram rail_urban rail rail_electric rail_fast ship container cable_car subway aircraft wheelchair scooter drone" oneway="0"/>
    <type id="highway.secondary" priority="11" numLanes="1" speed="27.78" disallow="tram rail_urban rail rail_electric rail_fast ship container cable_car subway aircraft wheelchair scooter drone" oneway="0"/>
    <type id="highway.secondary_link" priority="6" numLanes="1" speed="22.22" disallow="tram rail_urban rail rail_electric rail_fast ship container cable_car subway aircraft wheelchair scooter drone" oneway="0"/>
    <type id="highway.service" priority="1" numLanes="1" speed="5.56" allow="pedestrian delivery bicycle" oneway="0"/>
    <type id="highway.tertiary" priority="10" numLanes="1" speed="22.22" disallow="tram rail_urban rail rail_electric rail_fast ship container cable_car subway aircraft wheelchair scooter drone" oneway="0"/>
    <type id="highway.trunk" priority="13" numLanes="2" speed="27.78" disallow="pedestrian bicycle tram rail_urban rail rail_electric rail_fast ship container cable_car subway aircraft wheelchair scooter drone" oneway="0"/>
    <type id="highway.unclassified" priority="4" numLanes="1" speed="13.89" disallow="tram rail_urban rail rail_electric rail_fast ship container cable_car subway aircraft wheelchair scooter drone" oneway="0"/>

    <edge id=":102265266_0" function="internal">
        <lane id=":102265266_0_0" index="0" allow="pedestrian delivery bicycle" speed="3.91" length="2.52" shape="712.03,89.17 711.71,88.57 711.26,88.20 710.70,88.08 710.03,88.20"/>
    </edge>
    <edge id=":102265266_1" function="internal">
        <lane id=":102265266_1_0" index="0" disallow="tram rail_urban rail rail_electric rail_fast ship container cable_car subway aircraft wheelchair scooter drone" speed="3.65" length="4.67" shape="712.03,89.17 712.37,87.77 712.99,87.12 713.87,87.22 715.04,88.08"/>
    </edge>
    <edge id=":102265266_2" function="internal">
        <lane id=":102265266_2_0" index="0" allow="pedestrian delivery bicycle" speed="6.08" length="7.57" shape="709.02,85.16 711.06,84.80 712.74,85.16 714.06,86.25 715.04,88.08"/>
    </edge>
    <edge id=":102265481_0" function="internal">
        <lane id=":102265481_0_0" index="0" disallow="tram rail_urban rail rail_electric rail_fast ship container cable_car subway aircraft wheelchair scooter drone" speed="8.33" length="8.95" shape="735.45,144.02 736.20,146.59 736.68,148.46 737.55,150.03 739.47,151.71"/>
    </edge>
    <edge id=":102265481_1" function="internal">
        <lane id=":102265481_1_0" index="0" allow="pedestrian delivery bicycle" speed="7.02" length="3.72" shape="735.45,144.02 735.56,146.43 735.07,147.64"/>
    </edge>
    <edge id=":102265481_2" function="internal">
        <lane id=":102265481_2_0" index="0" disallow="tram rail_urban rail rail_electric rail_fast ship container cable_car subway aircraft wheelchair scooter drone" speed="3.65" length="1.44" shape="735.45,144.02 735.11,145.42"/>
    </edge>
    <edge id=":102265481_9" function="internal">
        <lane id=":102265481_9_0" index="0" allow="pedestrian delivery bicycle" speed="7.02" length="6.88" shape="735.07,147.64 734.54,148.95 732.74,151.15 730.52,152.56"/>
    </edge>
    <edge id=":102265481_10" function="internal">
        <lane id=":102265481_10_0" index="0" disallow="tram rail_urban rail rail_electric rail_fast ship container cable_car subway aircraft wheelchair scooter drone" speed="3.65" length="3.23" shape="735.11,145.42 734.49,146.07 733.60,145.97 732.44,145.12"/>
    </edge>
    <edge id=":102265481_3" function="internal">
        <lane id=":102265481_3_0" index="0" allow="pedestrian delivery bicycle" speed="5.49" length="6.08" shape="729.39,149.57 731.12,148.71 732.21,147.68 732.64,146.48 732.44,145.12"/>
    </edge>
    <edge id=":102265481_4" function="internal">
        <lane id=":102265481_4_0" index="0" allow="pedestrian delivery bicycle" speed="8.33" length="10.72" shape="729.39,149.57 731.73,149.05 734.19,149.24 736.77,150.12 739.47,151.71"/>
    </edge>
    <edge id=":102265481_5" function="internal">
        <lane id=":102265481_5_0" index="0" allow="pedestrian delivery bicycle" speed="3.65" length="4.67" shape="729.39,149.57 730.80,149.89 731.45,150.50 731.36,151.39 730.52,152.56"/>
    </edge>
    <edge id=":102265481_6" function="internal">
        <lane id=":102265481_6_0" index="0" allow="pedestrian delivery bicycle" speed="4.94" length="4.77" shape="733.75,155.39 733.05,153.88 732.27,152.91 731.43,152.47 730.52,152.56"/>
    </edge>
    <edge id=":102265481_7" function="internal">
        <lane id=":102265481_7_0" index="0" disallow="tram rail_urban rail rail_electric rail_fast ship container cable_car subway aircraft wheelchair scooter drone" speed="8.33" length="10.43" shape="733.75,155.39 733.04,152.47 733.07,150.26 733.12,148.05 732.44,145.12"/>
    </edge>
    <edge id=":102265481_8" function="internal">
        <lane id=":102265481_8_0" index="0" disallow="tram rail_urban rail rail_electric rail_fast ship container cable_car subway aircraft wheelchair scooter drone" speed="6.04" length="2.26" shape="733.75,155.39 733.16,153.21"/>
    </edge>
    <edge id=":102265481_11" function="internal">
        <lane id=":102265481_11_0" index="0" disallow="tram rail_urban rail rail_electric rail_fast ship container cable_car subway aircraft wheelchair scooter drone" speed="6.04" length="11.06" shape="733.16,153.21 732.61,151.22 733.18,149.22 735.47,149.38 739.47,151.71"/>
    </edge>
    <edge id=":10284285037_0" function="internal">
        <lane id=":10284285037_0_0" index="0" disallow="tram rail_urban rail rail_electric rail_fast ship container cable_car subway aircraft wheelchair scooter drone" speed="8.70" length="15.67" shape="8.77,448.56 5.61,447.09 3.57,444.46 2.64,440.67 2.83,435.72"/>
    </edge>
    <edge id=":10284285037_1" function="internal">
        <lane id=":10284285037_1_0" index="0" disallow="tram rail_urban rail rail_electric rail_fast ship container cable_car subway aircraft wheelchair scooter drone" speed="6.53" length="8.39" shape="6.00,436.14 6.01,438.41 6.73,440.20 8.14,441.51 10.25,442.33"/>
    </edge>
    <edge id=":10284428675_0" function="internal">
        <lane id=":10284428675_0_0" index="0" allow="pedestrian delivery bicycle" speed="3.65" length="4.67" shape="588.23,293.08 587.01,292.31 586.59,291.52 586.97,290.71 588.15,289.88"/>
    </edge>
    <edge id=":10284496561_0" function="internal">
        <lane id=":10284496561_0_0" index="0" disallow="tram rail_urban rail rail_electric rail_fast ship container cable_car subway aircraft wheelchair scooter drone" speed="3.65" length="4.67" shape="572.37,83.04 573.70,82.50 574.59,82.62 575.03,83.40 575.01,84.84"/>
    </edge>
    <edge id=":10284766166_0" function="internal">
        <lane id=":10284766166_0_0" index="0" disallow="pedestrian tram rail_urban rail rail_electric rail_fast ship container cable_car subway aircraft wheelchair scooter drone" speed="13.89" length="9.40" shape="944.50,170.88 938.95,178.47"/>
        <lane id=":10284766166_0_1" index="1" disallow="pedestrian tram rail_urban rail rail_electric rail_fast ship container cable_car subway aircraft wheelchair scooter drone" speed="13.89" length="9.40" shape="941.91,168.99 936.37,176.59"/>
    </edge>
    <edge id=":10284766166_2" function="internal">
        <lane id=":10284766166_2_0" index="0" allow="delivery bicycle" speed="6.15" length="7.80" shape="941.91,168.99 940.14,171.09 938.50,172.34 937.00,172.73 935.64,172.26"/>
    </edge>
    <edge id=":10284766166_3" function="internal">
        <lane id=":10284766166_3_0" index="0" allow="delivery bicycle" speed="6.06" length="7.83" shape="937.46,169.63 938.39,170.75 938.51,172.29 937.84,174.23 936.37,176.59"/>
    </edge>
    <edge id=":10284766166_4" function="internal">
        <lane id=":10284766166_4_0" index="0" allow="pedestrian delivery bicycle" speed="3.65" length="4.67" shape="937.46,169.63 937.99,170.97 937.87,171.86 937.08,172.29 935.64,172.26"/>
    </edge>
    <edge id=":10284766167_0" function="internal">
        <lane id=":10284766167_0_0" index="0" allow="delivery bicycle" speed="6.06" length="7.81" shape="935.09,171.88 934.17,170.76 934.04,169.23 934.71,167.29 936.17,164.93"/>
    </edge>
    <edge id=":10284766167_1" function="internal">
        <lane id=":10284766167_1_0" index="0" allow="pedestrian delivery bicycle" speed="3.65" length="4.67" shape="935.09,171.88 934.56,170.54 934.68,169.65 935.47,169.22 936.91,169.25"/>
    </edge>
    <edge id=":10284766167_2" function="internal">
        <lane id=":10284766167_2_0" index="0" disallow="pedestrian tram rail_urban rail rail_electric rail_fast ship container cable_car subway aircraft wheelchair scooter drone" speed="13.89" length="9.40" shape="928.07,170.66 933.58,163.05"/>
        <lane id=":10284766167_2_1" index="1" disallow="pedestrian tram rail_urban rail rail_electric rail_fast ship container cable_car subway aircraft wheelchair scooter drone" speed="13.89" length="9.40" shape="930.66,172.54 936.17,164.93"/>
    </edge>
    <edge id=":10284766167_4" function="internal">
        <lane id=":10284766167_4_0" index="0" allow="delivery bicycle" speed="6.14" length="7.79" shape="930.66,172.54 932.43,170.43 934.06,169.18 935.55,168.79 936.91,169.25"/>
    </edge>
    <edge id=":10284766168_0" function="internal">
        <lane id=":10284766168_0_0" index="0" allow="pedestrian delivery bicycle" speed="3.65" length="4.67" shape="966.26,154.38 966.76,155.73 966.61,156.61 965.82,157.02 964.38,156.96"/>
    </edge>
    <edge id=":10284766169_0" function="internal">
        <lane id=":10284766169_0_0" index="0" allow="delivery bicycle" speed="5.04" length="5.00" shape="960.54,154.18 959.33,153.53 958.21,153.43 957.17,153.87 956.21,154.85"/>
    </edge>
    <edge id=":10284766169_1" function="internal">
        <lane id=":10284766169_1_0" index="0" allow="pedestrian delivery bicycle" speed="3.65" length="4.67" shape="960.54,154.18 960.04,152.82 960.19,151.94 960.99,151.53 962.43,151.59"/>
    </edge>
    <edge id=":10284766169_2" function="internal">
        <lane id=":10284766169_2_0" index="0" allow="delivery bicycle" speed="5.09" length="5.03" shape="961.66,147.23 961.05,148.44 960.97,149.58 961.43,150.63 962.43,151.59"/>
    </edge>
    <edge id=":10284766169_3" function="internal">
        <lane id=":10284766169_3_0" index="0" disallow="pedestrian tram rail_urban rail rail_electric rail_fast ship container cable_car subway aircraft wheelchair scooter drone" speed="13.89" length="9.33" shape="961.66,147.23 956.21,154.85"/>
        <lane id=":10284766169_3_1" index="1" disallow="pedestrian tram rail_urban rail rail_electric rail_fast ship container cable_car subway aircraft wheelchair scooter drone" speed="13.89" length="9.33" shape="959.03,145.40 953.63,152.96"/>
    </edge>
    <edge id=":10285669300_0" function="internal">
        <lane id=":10285669300_0_0" index="0" allow="pedestrian delivery bicycle" speed="3.65" length="4.67" shape="1855.35,20.38 1855.51,18.95 1856.03,18.22 1856.92,18.21 1858.19,18.90"/>
    </edge>
    <edge id=":10286906901_0" function="internal">
        <lane id=":10286906901_0_0" index="0" allow="pedestrian delivery bicycle" speed="3.65" length="4.67" shape="1905.91,116.59 1907.04,117.49 1907.36,118.32 1906.90,119.08 1905.63,119.77"/>
    </edge>
    <edge id=":10286906903_0" function="internal">
        <lane id=":10286906903_0_0" index="0" allow="pedestrian delivery bicycle" speed="3.65" length="4.67" shape="1883.36,123.10 1882.22,122.21 1881.88,121.38 1882.34,120.61 1883.60,119.90"/>
    </edge>
    <edge id=":10286920711_0" function="internal">
        <lane id=":10286920711_0_0" index="0" allow="pedestrian delivery bicycle" speed="3.65" length="4.67" shape="1877.90,193.12 1876.78,192.23 1876.45,191.39 1876.91,190.63 1878.18,189.94"/>
    </edge>
    <edge id=":10286920713_0" function="internal">
        <lane id=":10286920713_0_0" index="0" allow="pedestrian delivery bicycle" speed="3.65" length="4.67" shape="1899.82,193.19 1900.95,194.09 1901.27,194.92 1900.80,195.68 1899.54,196.37"/>
    </edge>
    <edge id=":10286920729_0" function="internal">
        <lane id=":10286920729_0_0" index="0" allow="pedestrian delivery bicycle" speed="3.65" length="4.67" shape="1882.34,399.46 1883.49,400.34 1883.84,401.16 1883.39,401.93 1882.14,402.66"/>
    </edge>
    <edge id=":10286920730_0" function="internal">
        <lane id=":10286920730_0_0" index="0" allow="delivery bicycle" speed="5.09" length="5.06" shape="1877.61,402.36 1876.21,402.46 1875.17,402.97 1874.50,403.89 1874.19,405.22"/>
    </edge>
    <edge id=":10286920730_1" function="internal">
        <lane id=":10286920730_1_0" index="0" allow="delivery bicycle" speed="6.85" length="10.23" shape="1877.61,402.36 1874.86,401.78 1872.97,400.46 1871.94,398.39 1871.77,395.59"/>
    </edge>
    <edge id=":10286920730_2" function="internal">
        <lane id=":10286920730_2_0" index="0" allow="pedestrian delivery bicycle" speed="3.65" length="4.67" shape="1877.61,402.36 1876.46,401.49 1876.12,400.66 1876.57,399.89 1877.82,399.17"/>
    </edge>
    <edge id=":10286920730_3" function="internal">
        <lane id=":10286920730_3_0" index="0" allow="delivery bicycle" speed="5.03" length="5.02" shape="1874.96,395.85 1875.04,397.22 1875.55,398.24 1876.47,398.89 1877.82,399.17"/>
    </edge>
    <edge id=":10286920730_4" function="internal">
        <lane id=":10286920730_4_0" index="0" disallow="pedestrian tram rail_urban rail rail_electric rail_fast ship container cable_car subway aircraft wheelchair scooter drone" speed="8.33" length="9.40" shape="1874.96,395.85 1874.19,405.22">
            <neigh lane=":10286920730_5_0"/>
        </lane>
    </edge>
    <edge id=":10286920730_5" function="internal">
        <lane id=":10286920730_5_0" index="0" disallow="pedestrian tram rail_urban rail rail_electric rail_fast ship container cable_car subway aircraft wheelchair scooter drone" speed="8.33" length="9.40" shape="1871.00,404.96 1871.77,395.59">
            <neigh lane=":10286920730_4_0"/>
        </lane>
    </edge>
    <edge id=":10286920730_6" function="internal">
        <lane id=":10286920730_6_0" index="0" allow="delivery bicycle" speed="6.90" length="3.23" shape="1871.00,404.96 1871.62,402.27 1871.90,401.88"/>
    </edge>
    <edge id=":10286920730_7" function="internal">
        <lane id=":10286920730_7_0" index="0" allow="delivery bicycle" speed="6.90" length="6.93" shape="1871.90,401.88 1872.96,400.41 1875.03,399.37 1877.82,399.17"/>
    </edge>
    <edge id=":10286992714_0" function="internal">
        <lane id=":10286992714_0_0" index="0" allow="pedestrian delivery bicycle" speed="3.65" length="4.67" shape="1853.80,500.45 1852.67,499.55 1852.35,498.72 1852.82,497.96 1854.08,497.27"/>
    </edge>
    <edge id=":10286992715_0" function="internal">
        <lane id=":10286992715_0_0" index="0" disallow="pedestrian tram rail_urban rail rail_electric rail_fast ship container cable_car subway aircraft wheelchair scooter drone" speed="8.33" length="9.39" shape="1865.19,495.13 1864.41,504.49"/>
    </edge>
    <edge id=":10286992715_1" function="internal">
        <lane id=":10286992715_1_0" index="0" allow="delivery bicycle" speed="6.08" length="7.77" shape="1865.19,495.13 1864.77,497.86 1864.02,499.77 1862.95,500.87 1861.55,501.14"/>
    </edge>
    <edge id=":10286992715_2" function="internal">
        <lane id=":10286992715_2_0" index="0" allow="delivery bicycle" speed="6.09" length="7.76" shape="1861.84,497.95 1863.16,498.46 1864.03,499.72 1864.45,501.73 1864.41,504.49"/>
    </edge>
    <edge id=":10286992715_3" function="internal">
        <lane id=":10286992715_3_0" index="0" allow="pedestrian delivery bicycle" speed="3.65" length="4.67" shape="1861.84,497.95 1862.96,498.85 1863.29,499.69 1862.82,500.45 1861.55,501.14"/>
    </edge>
    <edge id=":10286992740_0" function="internal">
        <lane id=":10286992740_0_0" index="0" allow="delivery bicycle" speed="5.10" length="5.02" shape="1860.14,562.79 1860.28,564.14 1860.82,565.14 1861.77,565.78 1863.12,566.07"/>
    </edge>
    <edge id=":10286992740_1" function="internal">
        <lane id=":10286992740_1_0" index="0" disallow="pedestrian tram rail_urban rail rail_electric rail_fast ship container cable_car subway aircraft wheelchair scooter drone" speed="8.33" length="4.76" shape="1860.14,562.79 1859.90,567.55"/>
    </edge>
    <edge id=":10286992743_0" function="internal">
        <lane id=":10286992743_0_0" index="0" allow="pedestrian delivery bicycle" speed="3.65" length="4.67" shape="1845.20,611.56 1844.08,610.65 1843.76,609.82 1844.23,609.06 1845.50,608.38"/>
    </edge>
    <edge id=":10286992744_0" function="internal">
        <lane id=":10286992744_0_0" index="0" disallow="pedestrian tram rail_urban rail rail_electric rail_fast ship container cable_car subway aircraft wheelchair scooter drone" speed="8.33" length="9.41" shape="1857.10,606.37 1856.39,615.75"/>
    </edge>
    <edge id=":10286992744_1" function="internal">
        <lane id=":10286992744_1_0" index="0" allow="delivery bicycle" speed="6.05" length="7.83" shape="1857.10,606.37 1856.70,609.12 1855.96,611.03 1854.86,612.12 1853.43,612.37"/>
    </edge>
    <edge id=":10286992744_2" function="internal">
        <lane id=":10286992744_2_0" index="0" allow="delivery bicycle" speed="6.14" length="7.80" shape="1853.75,609.19 1855.09,609.72 1855.98,610.99 1856.41,613.00 1856.39,615.75"/>
    </edge>
    <edge id=":10286992744_3" function="internal">
        <lane id=":10286992744_3_0" index="0" allow="pedestrian delivery bicycle" speed="3.65" length="4.67" shape="1853.75,609.19 1854.86,610.11 1855.18,610.94 1854.70,611.70 1853.43,612.37"/>
    </edge>
    <edge id=":10287240229_0" function="internal">
        <lane id=":10287240229_0_0" index="0" disallow="pedestrian tram rail_urban rail rail_electric rail_fast ship container cable_car subway aircraft wheelchair scooter drone" speed="8.33" length="0.36" shape="1750.80,643.40 1750.65,643.07"/>
    </edge>
    <edge id=":10287240229_1" function="internal">
        <lane id=":10287240229_1_0" index="0" disallow="pedestrian tram rail_urban rail rail_electric rail_fast ship container cable_car subway aircraft wheelchair scooter drone" speed="3.65" length="2.34" shape="1750.80,643.40 1749.67,642.51 1749.33,641.68"/>
    </edge>
    <edge id=":10287240229_3" function="internal">
        <lane id=":10287240229_3_0" index="0" disallow="pedestrian tram rail_urban rail rail_electric rail_fast ship container cable_car subway aircraft wheelchair scooter drone" speed="3.65" length="2.34" shape="1749.33,641.68 1749.80,640.91 1751.06,640.21"/>
    </edge>
    <edge id=":10287240229_2" function="internal">
        <lane id=":10287240229_2_0" index="0" disallow="pedestrian tram rail_urban rail rail_electric rail_fast ship container cable_car subway aircraft wheelchair scooter drone" speed="8.33" length="0.43" shape="1750.81,640.56 1751.06,640.21"/>
    </edge>
    <edge id=":10287240230_0" function="internal">
        <lane id=":10287240230_0_0" index="0" disallow="pedestrian tram rail_urban rail rail_electric rail_fast ship container cable_car subway aircraft wheelchair scooter drone" speed="8.33" length="0.41" shape="1673.00,637.52 1672.90,637.48 1672.82,637.51 1672.74,637.56 1672.62,637.58"/>
    </edge>
    <edge id=":10287240230_1" function="internal">
        <lane id=":10287240230_1_0" index="0" disallow="pedestrian tram rail_urban rail rail_electric rail_fast ship container cable_car subway aircraft wheelchair scooter drone" speed="8.33" length="0.68" shape="1672.71,634.39 1673.27,634.78"/>
    </edge>
    <edge id=":10287240230_2" function="internal">
        <lane id=":10287240230_2_0" index="0" disallow="pedestrian tram rail_urban rail rail_electric rail_fast ship container cable_car subway aircraft wheelchair scooter drone" speed="3.65" length="1.28" shape="1672.71,634.39 1673.75,635.13"/>
    </edge>
    <edge id=":10287240230_3" function="internal">
        <lane id=":10287240230_3_0" index="0" disallow="pedestrian tram rail_urban rail rail_electric rail_fast ship container cable_car subway aircraft wheelchair scooter drone" speed="3.65" length="3.40" shape="1673.75,635.13 1673.89,635.22 1674.26,636.03 1673.84,636.82 1672.62,637.58"/>
    </edge>
    <edge id=":10287435806_0" function="internal">
        <lane id=":10287435806_0_0" index="0" allow="pedestrian delivery bicycle" speed="3.65" length="4.67" shape="1582.87,145.08 1581.97,146.21 1581.14,146.53 1580.37,146.06 1579.69,144.80"/>
    </edge>
    <edge id=":10287452210_0" function="internal">
        <lane id=":10287452210_0_0" index="0" allow="pedestrian delivery bicycle" speed="3.65" length="4.67" shape="1752.23,78.67 1751.11,77.77 1750.79,76.93 1751.26,76.17 1752.53,75.49"/>
    </edge>
    <edge id=":10287452213_0" function="internal">
        <lane id=":10287452213_0_0" index="0" allow="pedestrian delivery bicycle" speed="3.65" length="4.67" shape="1774.94,68.32 1776.07,69.21 1776.40,70.04 1775.94,70.80 1774.68,71.50"/>
    </edge>
    <edge id=":1041979356_0" function="internal">
        <lane id=":1041979356_0_0" index="0" disallow="pedestrian tram rail_urban rail rail_electric rail_fast ship container cable_car subway aircraft wheelchair scooter drone" speed="8.33" length="6.48" shape="1952.01,559.34 1950.05,559.20 1948.71,559.07 1947.37,558.89 1945.43,558.58">
            <neigh lane=":1041979356_3_0"/>
        </lane>
    </edge>
    <edge id=":1041979356_1" function="internal">
        <lane id=":1041979356_1_0" index="0" allow="delivery bicycle" speed="6.12" length="7.89" shape="1952.01,559.34 1950.68,558.85 1949.80,557.57 1949.36,555.52 1949.37,552.69"/>
    </edge>
    <edge id=":1041979356_2" function="internal">
        <lane id=":1041979356_2_0" index="0" allow="delivery bicycle" speed="4.95" length="5.10" shape="1945.93,555.42 1947.35,555.44 1948.39,554.99 1949.07,554.08 1949.37,552.69"/>
    </edge>
    <edge id=":1041979356_3" function="internal">
        <lane id=":1041979356_3_0" index="0" disallow="pedestrian tram rail_urban rail rail_electric rail_fast ship container cable_car subway aircraft wheelchair scooter drone" speed="8.33" length="6.48" shape="1945.93,555.42 1947.79,555.71 1949.07,555.89 1950.35,556.01 1952.23,556.15">
            <neigh lane=":1041979356_0_0"/>
        </lane>
    </edge>
    <edge id=":1041979358_0" function="internal">
        <lane id=":1041979358_0_0" index="0" allow="delivery bicycle" speed="5.01" length="5.03" shape="1865.13,533.97 1863.74,534.05 1862.73,534.56 1862.09,535.49 1861.82,536.85"/>
    </edge>
    <edge id=":1041979358_1" function="internal">
        <lane id=":1041979358_1_0" index="0" disallow="pedestrian tram rail_urban rail rail_electric rail_fast ship container cable_car subway aircraft wheelchair scooter drone" speed="8.33" length="6.25" shape="1862.25,530.62 1861.82,536.85"/>
    </edge>
    <edge id=":10556619352_0" function="internal">
        <lane id=":10556619352_0_0" index="0" disallow="pedestrian tram rail_urban rail rail_electric rail_fast ship container cable_car subway aircraft wheelchair scooter drone" speed="3.65" length="4.67" shape="1759.55,838.89 1760.68,839.78 1761.01,840.61 1760.55,841.37 1759.29,842.07"/>
    </edge>
    <edge id=":10556620135_0" function="internal">
        <lane id=":10556620135_0_0" index="0" disallow="pedestrian tram rail_urban rail rail_electric rail_fast ship container cable_car subway aircraft wheelchair scooter drone" speed="8.33" length="3.52" width="6.90" shape="1589.59,394.14 1589.69,397.66">
            <neigh lane=":10556620135_1_0"/>
        </lane>
    </edge>
    <edge id=":10556620135_1" function="internal">
        <lane id=":10556620135_1_0" index="0" disallow="pedestrian tram rail_urban rail rail_electric rail_fast ship container cable_car subway aircraft wheelchair scooter drone" speed="8.33" length="3.52" shape="1583.71,394.20 1586.82,392.53">
            <neigh lane=":10556620135_0_0"/>
        </lane>
    </edge>
    <edge id=":10591271425_0" function="internal">
        <lane id=":10591271425_0_0" index="0" allow="bicycle" speed="5.56" length="5.10" width="1.50" shape="777.08,346.90 782.18,346.97"/>
    </edge>
    <edge id=":10591271449_0" function="internal">
        <lane id=":10591271449_0_0" index="0" allow="bicycle" speed="5.56" length="6.72" width="1.50" shape="502.27,317.33 495.61,316.40"/>
    </edge>
    <edge id=":10591271466_0" function="internal">
        <lane id=":10591271466_0_0" index="0" allow="bicycle" speed="5.56" length="2.08" width="1.00" shape="334.19,146.77 334.41,147.35 334.58,147.74 334.76,148.12 335.05,148.67"/>
    </edge>
    <edge id=":10676601754_0" function="internal">
        <lane id=":10676601754_0_0" index="0" disallow="pedestrian tram rail_urban rail rail_electric rail_fast ship container cable_car subway aircraft wheelchair scooter drone" speed="8.33" length="9.40" shape="2030.60,102.18 2029.85,111.56">
            <neigh lane=":10676601754_6_0"/>
        </lane>
    </edge>
    <edge id=":10676601754_1" function="internal">
        <lane id=":10676601754_1_0" index="0" allow="delivery bicycle" speed="6.87" length="3.26" shape="2030.60,102.18 2029.99,104.89 2029.71,105.28"/>
    </edge>
    <edge id=":10676601754_7" function="internal">
        <lane id=":10676601754_7_0" index="0" allow="delivery bicycle" speed="6.87" length="6.90" shape="2029.71,105.28 2028.65,106.76 2026.59,107.79 2023.81,107.97"/>
    </edge>
    <edge id=":10676601754_2" function="internal">
        <lane id=":10676601754_2_0" index="0" allow="delivery bicycle" speed="5.05" length="5.02" shape="2024.05,104.78 2025.43,104.69 2026.44,104.19 2027.10,103.27 2027.41,101.93"/>
    </edge>
    <edge id=":10676601754_3" function="internal">
        <lane id=":10676601754_3_0" index="0" allow="delivery bicycle" speed="6.86" length="10.18" shape="2024.05,104.78 2026.78,105.38 2028.65,106.71 2029.68,108.77 2029.85,111.56"/>
    </edge>
    <edge id=":10676601754_4" function="internal">
        <lane id=":10676601754_4_0" index="0" allow="pedestrian delivery bicycle" speed="3.65" length="4.67" shape="2024.05,104.78 2025.19,105.67 2025.53,106.50 2025.07,107.26 2023.81,107.97"/>
    </edge>
    <edge id=":10676601754_5" function="internal">
        <lane id=":10676601754_5_0" index="0" allow="delivery bicycle" speed="5.04" length="5.00" shape="2026.66,111.30 2026.58,109.93 2026.07,108.92 2025.15,108.27 2023.81,107.97"/>
    </edge>
    <edge id=":10676601754_6" function="internal">
        <lane id=":10676601754_6_0" index="0" disallow="pedestrian tram rail_urban rail rail_electric rail_fast ship container cable_car subway aircraft wheelchair scooter drone" speed="8.33" length="9.40" shape="2026.66,111.30 2027.41,101.93">
            <neigh lane=":10676601754_0_0"/>
        </lane>
    </edge>
    <edge id=":10676601755_0" function="internal">
        <lane id=":10676601755_0_0" index="0" allow="pedestrian delivery bicycle" speed="3.65" length="4.67" shape="2016.99,107.47 2015.85,106.58 2015.51,105.75 2015.97,104.98 2017.23,104.27"/>
    </edge>