<?xml version="1.0" encoding="UTF-8"?>

<!-- generated on 2025-06-30 10:43:06.103799 by osmWebWizard.py v1_23_1+0000-676720d13f6
<configuration>
    <net-file value="C:\Users\Gagana\Sumo\2025-06-30-10-42-46\osm.net.xml.gz"/>
    <output-trip-file value="C:\Users\Gagana\Sumo\2025-06-30-10-42-46\osm.motorcycle.trips.xml"/>
    <route-file value="C:\Users\Gagana\Sumo\2025-06-30-10-42-46\osm.motorcycle.rou.xml"/>
    <prefix value="motorcycle"/>
    <trip-attributes value="departLane=&quot;best&quot;"/>
    <fringe-start-attributes value="departSpeed=&quot;max&quot;"/>
    <vehicle-class value="motorcycle"/>
    <fringe-factor value="2"/>
    <edge-permission value="motorcycle"/>
    <via-edge-types value="highway.motorway,highway.motorway_link,highway.trunk_link,highway.primary_link,highway.secondary_link,highway.tertiary_link"/>
    <max-distance value="1200.0"/>
    <remove-loops value="True"/>
    <validate value="True"/>
    <insertion-density value="20.0"/>
</configuration>
-->

<routes xmlns:xsi="http://www.w3.org/2001/XMLSchema-instance" xsi:noNamespaceSchemaLocation="http://sumo.dlr.de/xsd/routes_file.xsd">
    <vType id="motorcycle_motorcycle" vClass="motorcycle"/>
    <trip id="motorcycle0" depart="0.00" from="-4588215#1" to="-4396528#3" departLane="best" type="motorcycle_motorcycle"/>
    <trip id="motorcycle1" depart="4.34" from="328064919#0" to="25041996#0" departLane="best" type="motorcycle_motorcycle" departSpeed="max"/>
    <trip id="motorcycle2" depart="8.69" from="-9657820#0" to="-1132163645#7" departLane="best" type="motorcycle_motorcycle"/>
    <trip id="motorcycle3" depart="13.03" from="-327462543#2" to="1152723801" departLane="best" type="motorcycle_motorcycle"/>
    <trip id="motorcycle4" depart="17.38" from="-1110753055#0" to="-356359316#1" departLane="best" type="motorcycle_motorcycle"/>
    <trip id="motorcycle5" depart="21.72" from="199847247#0" to="1199889721#1" departLane="best" type="motorcycle_motorcycle"/>
    <trip id="motorcycle6" depart="26.06" from="-327462545#3" to="160971191#3" departLane="best" type="motorcycle_motorcycle"/>
    <trip id="motorcycle7" depart="30.41" from="4396528#0" to="309644167" departLane="best" type="motorcycle_motorcycle"/>
    <trip id="motorcycle8" depart="34.75" from="710761406#2" to="-681299268" departLane="best" type="motorcycle_motorcycle"/>
    <trip id="motorcycle9" depart="39.10" from="-1151333057#1" to="-1152876522#1" departLane="best" type="motorcycle_motorcycle"/>
    <trip id="motorcycle10" depart="43.44" from="4597322#3" to="168928174#1" departLane="best" type="motorcycle_motorcycle"/>
    <trip id="motorcycle11" depart="47.78" from="4396528#3" to="356359316#2" departLane="best" type="motorcycle_motorcycle"/>
    <trip id="motorcycle12" depart="52.13" from="1152723801" to="81113584#0" departLane="best" type="motorcycle_motorcycle"/>
    <trip id="motorcycle13" depart="56.47" from="-66071387#3" to="1228558179#1" departLane="best" type="motorcycle_motorcycle"/>
    <trip id="motorcycle14" depart="60.82" from="4588215#6" to="199847244#0" departLane="best" type="motorcycle_motorcycle"/>
    <trip id="motorcycle15" depart="65.16" from="4597336" to="159081774#0" departLane="best" type="motorcycle_motorcycle"/>
    <trip id="motorcycle16" depart="69.50" from="25042806#2" to="-1136657266#0" departLane="best" type="motorcycle_motorcycle"/>
    <trip id="motorcycle17" depart="73.85" from="-1151333062" to="-4611773" departLane="best" type="motorcycle_motorcycle"/>
    <trip id="motorcycle18" depart="78.19" from="176043805" to="-851251671#2" departLane="best" type="motorcycle_motorcycle"/>
    <trip id="motorcycle19" depart="82.54" from="-65040946#4" to="-375459783#0" departLane="best" type="motorcycle_motorcycle"/>
    <trip id="motorcycle20" depart="86.88" from="199847244#1" to="181472197#0" departLane="best" type="motorcycle_motorcycle"/>
    <trip id="motorcycle21" depart="91.22" from="-197160273#1" to="356359316#2" departLane="best" type="motorcycle_motorcycle"/>
    <trip id="motorcycle22" depart="95.57" from="-168935757#0" to="1057178318" departLane="best" type="motorcycle_motorcycle"/>
    <trip id="motorcycle23" depart="99.91" from="884209962#3" to="23017853" departLane="best" type="motorcycle_motorcycle"/>
    <trip id="motorcycle24" depart="104.26" from="11845184#0" to="28108856#0" departLane="best" type="motorcycle_motorcycle"/>
    <trip id="motorcycle25" depart="108.60" from="458953718" to="435164424" departLane="best" type="motorcycle_motorcycle"/>
    <trip id="motorcycle26" depart="112.94" from="-327756257#2" to="-1132164893#0" departLane="best" type="motorcycle_motorcycle"/>
    <trip id="motorcycle27" depart="117.29" from="-4597351#1" to="-4597351#0" departLane="best" type="motorcycle_motorcycle" departSpeed="max"/>
    <trip id="motorcycle28" depart="121.63" from="-28402260#2" to="67718316#1" departLane="best" type="motorcycle_motorcycle"/>
    <trip id="motorcycle29" depart="125.97" from="4611773" to="-65040946#3" departLane="best" type="motorcycle_motorcycle"/>
    <trip id="motorcycle30" depart="130.32" from="22972470#0" to="1105574288#1" departLane="best" type="motorcycle_motorcycle"/>
    <trip id="motorcycle31" depart="134.66" from="-4396528#2" to="-4588219#1" departLane="best" type="motorcycle_motorcycle"/>
    <trip id="motorcycle32" depart="139.01" from="11845184#3" to="-4597335#1" departLane="best" type="motorcycle_motorcycle"/>
    <trip id="motorcycle33" depart="143.35" from="1228562464#1" to="508410318#0" departLane="best" type="motorcycle_motorcycle"/>
    <trip id="motorcycle34" depart="147.69" from="-1151333057#0" to="-1136657266#1" departLane="best" type="motorcycle_motorcycle"/>
    <trip id="motorcycle35" depart="152.04" from="-1152723807" to="22972470#0" departLane="best" type="motorcycle_motorcycle"/>
    <trip id="motorcycle36" depart="156.38" from="43376693#0" to="1123184404#0" departLane="best" type="motorcycle_motorcycle"/>
    <trip id="motorcycle37" depart="160.73" from="-1147413234#2" to="1057179327#0" departLane="best" type="motorcycle_motorcycle"/>
    <trip id="motorcycle38" depart="165.07" from="9657820#0" to="11845184#0" departLane="best" type="motorcycle_motorcycle"/>
    <trip id="motorcycle39" depart="169.41" from="753316506" to="4611869#0" departLane="best" type="motorcycle_motorcycle"/>
    <trip id="motorcycle40" depart="173.76" from="-109902441" to="32938173#0" departLane="best" type="motorcycle_motorcycle"/>
    <trip id="motorcycle41" depart="178.10" from="24214089#0" to="11845212" departLane="best" type="motorcycle_motorcycle"/>
    <trip id="motorcycle42" depart="182.45" from="-1152723812#0" to="1126488562" departLane="best" type="motorcycle_motorcycle"/>
    <trip id="motorcycle43" depart="186.79" from="1110752486" to="707107510#0" departLane="best" type="motorcycle_motorcycle"/>
    <trip id="motorcycle44" depart="191.13" from="4611773" to="-4597335#1" departLane="best" type="motorcycle_motorcycle"/>
    <trip id="motorcycle45" depart="195.48" from="1147413289#0" to="-28402260#2" departLane="best" type="motorcycle_motorcycle"/>
    <trip id="motorcycle46" depart="199.82" from="531952542#1" to="461905068#0" departLane="best" type="motorcycle_motorcycle"/>
    <trip id="motorcycle47" depart="204.17" from="-4597324#0" to="23017852#2" departLane="best" type="motorcycle_motorcycle"/>
    <trip id="motorcycle48" depart="208.51" from="37289167#3" to="1187575246" departLane="best" type="motorcycle_motorcycle"/>
    <trip id="motorcycle49" depart="212.85" from="375459783#1" to="11845184#1" departLane="best" type="motorcycle_motorcycle"/>
    <trip id="motorcycle50" depart="217.20" from="-1057178318" to="-66071387#3" departLane="best" type="motorcycle_motorcycle"/>
    <trip id="motorcycle51" depart="221.54" from="-1110748916" to="66071387#3" departLane="best" type="motorcycle_motorcycle" departSpeed="max"/>
    <trip id="motorcycle52" depart="225.89" from="4611774#1" to="4597325#1" departLane="best" type="motorcycle_motorcycle"/>
    <trip id="motorcycle53" depart="230.23" from="-1147767966#0" to="1149365724" departLane="best" type="motorcycle_motorcycle"/>
    <trip id="motorcycle54" depart="234.57" from="-1147413272#1" to="389101374" departLane="best" type="motorcycle_motorcycle" departSpeed="max"/>
    <trip id="motorcycle55" depart="238.92" from="37289167#7" to="-159081777#3" departLane="best" type="motorcycle_motorcycle"/>
    <trip id="motorcycle56" depart="243.26" from="1132163645#0" to="1228469479" departLane="best" type="motorcycle_motorcycle"/>
    <trip id="motorcycle57" depart="247.61" from="-4396528#2" to="461905068#1" departLane="best" type="motorcycle_motorcycle"/>
    <trip id="motorcycle58" depart="251.95" from="1152723807" to="356359316#2" departLane="best" type="motorcycle_motorcycle"/>
    <trip id="motorcycle59" depart="256.29" from="-24242838#4" to="-65040946#0" departLane="best" type="motorcycle_motorcycle"/>
    <trip id="motorcycle60" depart="260.64" from="110032714#1" to="1152723815" departLane="best" type="motorcycle_motorcycle"/>
    <trip id="motorcycle61" depart="264.98" from="-1152876521" to="-4474915#0" departLane="best" type="motorcycle_motorcycle"/>
    <trip id="motorcycle62" depart="269.33" from="-461905068#1" to="160971191#3" departLane="best" type="motorcycle_motorcycle"/>
    <trip id="motorcycle63" depart="273.67" from="-327756257#2" to="-4396109" departLane="best" type="motorcycle_motorcycle"/>
    <trip id="motorcycle64" depart="278.01" from="-1147413274" to="22972470#2" departLane="best" type="motorcycle_motorcycle"/>
    <trip id="motorcycle65" depart="282.36" from="-356359316#1" to="24242838#3" departLane="best" type="motorcycle_motorcycle"/>
    <trip id="motorcycle66" depart="286.70" from="-305640730#0" to="-168935757#0" departLane="best" type="motorcycle_motorcycle"/>
    <trip id="motorcycle67" depart="291.05" from="1125773128" to="4396528#0" departLane="best" type="motorcycle_motorcycle"/>
    <trip id="motorcycle68" depart="295.39" from="4396528#3" to="-327756257#2" departLane="best" type="motorcycle_motorcycle"/>
    <trip id="motorcycle69" depart="299.73" from="-9657820#1" to="1147413289#0" departLane="best" type="motorcycle_motorcycle"/>
    <trip id="motorcycle70" depart="304.08" from="327979621#0" to="24997595#1" departLane="best" type="motorcycle_motorcycle"/>
    <trip id="motorcycle71" depart="308.42" from="85255869#0" to="-1152876524#2" departLane="best" type="motorcycle_motorcycle" departSpeed="max"/>
    <trip id="motorcycle72" depart="312.77" from="-751604618" to="-694745015" departLane="best" type="motorcycle_motorcycle"/>
    <trip id="motorcycle73" depart="317.11" from="4597336" to="-4597322#0" departLane="best" type="motorcycle_motorcycle"/>
    <trip id="motorcycle74" depart="321.45" from="-23755731#2" to="1136657260" departLane="best" type="motorcycle_motorcycle"/>
    <trip id="motorcycle75" depart="325.80" from="-9657820#0" to="-4611773" departLane="best" type="motorcycle_motorcycle"/>
    <trip id="motorcycle76" depart="330.14" from="-375311158#3" to="65040946#4" departLane="best" type="motorcycle_motorcycle"/>
    <trip id="motorcycle77" depart="334.49" from="1152880160#0" to="-1147413234#2" departLane="best" type="motorcycle_motorcycle"/>
    <trip id="motorcycle78" depart="338.83" from="98399537" to="4597335#2" departLane="best" type="motorcycle_motorcycle"/>
    <trip id="motorcycle79" depart="343.17" from="753316505" to="65040958#0" departLane="best" type="motorcycle_motorcycle"/>
    <trip id="motorcycle80" depart="347.52" from="4597324#0" to="-24242838#3" departLane="best" type="motorcycle_motorcycle"/>
    <trip id="motorcycle81" depart="351.86" from="1132166702#1" to="-43376693#2" departLane="best" type="motorcycle_motorcycle"/>
    <trip id="motorcycle82" depart="356.20" from="-4396528#3" to="4396528#0" departLane="best" type="motorcycle_motorcycle"/>
    <trip id="motorcycle83" depart="360.55" from="1110752772" to="1123184404#0" departLane="best" type="motorcycle_motorcycle"/>
    <trip id="motorcycle84" depart="364.89" from="11845130" to="32938172" departLane="best" type="motorcycle_motorcycle"/>
    <trip id="motorcycle85" depart="369.24" from="-159081777#0" to="-47755711#1" departLane="best" type="motorcycle_motorcycle"/>
    <trip id="motorcycle86" depart="373.58" from="753316505" to="159081775#1" departLane="best" type="motorcycle_motorcycle"/>
    <trip id="motorcycle87" depart="377.92" from="1152723812#1" to="375311155#0" departLane="best" type="motorcycle_motorcycle"/>
    <trip id="motorcycle88" depart="382.27" from="-1136657265" to="159081777#1" departLane="best" type="motorcycle_motorcycle"/>
    <trip id="motorcycle89" depart="386.61" from="1147648944" to="4611711" departLane="best" type="motorcycle_motorcycle"/>
    <trip id="motorcycle90" depart="390.96" from="-159081777#1" to="751604616" departLane="best" type="motorcycle_motorcycle"/>
    <trip id="motorcycle91" depart="395.30" from="-1147648945#0" to="-327756248#2" departLane="best" type="motorcycle_motorcycle"/>
    <trip id="motorcycle92" depart="399.64" from="-32938173#3" to="-1249342904#1" departLane="best" type="motorcycle_motorcycle"/>
    <trip id="motorcycle93" depart="403.99" from="1252995263" to="199847244#0" departLane="best" type="motorcycle_motorcycle" departSpeed="max"/>
    <trip id="motorcycle94" depart="408.33" from="-909825429" to="159081777#1" departLane="best" type="motorcycle_motorcycle"/>
    <trip id="motorcycle95" depart="412.68" from="1151333058" to="67099789#0" departLane="best" type="motorcycle_motorcycle"/>
    <trip id="motorcycle96" depart="417.02" from="-24997595#0" to="328064918#0" departLane="best" type="motorcycle_motorcycle"/>
    <trip id="motorcycle97" depart="421.36" from="-356359316#1" to="1105574288#1" departLane="best" type="motorcycle_motorcycle"/>
    <trip id="motorcycle98" depart="425.71" from="23755720#0" to="-47755711#3" departLane="best" type="motorcycle_motorcycle"/>
    <trip id="motorcycle99" depart="430.05" from="-1147413276" to="1147413271#0" departLane="best" type="motorcycle_motorcycle" departSpeed="max"/>
    <trip id="motorcycle100" depart="434.40" from="9657820#1" to="9657820#0" departLane="best" type="motorcycle_motorcycle"/>
    <trip id="motorcycle101" depart="438.74" from="-1147413276" to="-43376693#1" departLane="best" type="motorcycle_motorcycle" departSpeed="max"/>
    <trip id="motorcycle102" depart="443.08" from="-4396528#3" to="665241888" departLane="best" type="motorcycle_motorcycle"/>
    <trip id="motorcycle103" depart="447.43" from="4611774#4" to="47707170#2" departLane="best" type="motorcycle_motorcycle"/>
    <trip id="motorcycle104" depart="451.77" from="-65040946#3" to="-23755731#0" departLane="best" type="motorcycle_motorcycle"/>
    <trip id="motorcycle105" depart="456.12" from="4588219#0" to="327756248#0" departLane="best" type="motorcycle_motorcycle"/>
    <trip id="motorcycle106" depart="460.46" from="159081777#1" to="860241087#1" departLane="best" type="motorcycle_motorcycle"/>
    <trip id="motorcycle107" depart="464.80" from="22972469#1" to="-109902441" departLane="best" type="motorcycle_motorcycle"/>
    <trip id="motorcycle108" depart="469.15" from="4474915#2" to="-47755711#3" departLane="best" type="motorcycle_motorcycle"/>
    <trip id="motorcycle109" depart="473.49" from="23017852#0" to="67627350#0" departLane="best" type="motorcycle_motorcycle"/>
    <trip id="motorcycle110" depart="477.84" from="-1191472404" to="-1228562464#1" departLane="best" type="motorcycle_motorcycle"/>
    <trip id="motorcycle111" depart="482.18" from="-1152723800" to="1228562464#1" departLane="best" type="motorcycle_motorcycle"/>
    <trip id="motorcycle112" depart="486.52" from="-453379904" to="168935757#0" departLane="best" type="motorcycle_motorcycle"/>
    <trip id="motorcycle113" depart="490.87" from="168935757#1" to="-4597335#2" departLane="best" type="motorcycle_motorcycle"/>
    <trip id="motorcycle114" depart="495.21" from="-1057180954#0" to="43376693#2" departLane="best" type="motorcycle_motorcycle"/>
    <trip id="motorcycle115" depart="499.56" from="181472197#0" to="-4597326" departLane="best" type="motorcycle_motorcycle"/>
    <trip id="motorcycle116" depart="503.90" from="32938173#0" to="1228558179#1" departLane="best" type="motorcycle_motorcycle"/>
    <trip id="motorcycle117" depart="508.24" from="1057180954#1" to="-1105574288#0" departLane="best" type="motorcycle_motorcycle"/>
    <trip id="motorcycle118" depart="512.59" from="-1147413288#0" to="47755711#1" departLane="best" type="motorcycle_motorcycle"/>
    <trip id="motorcycle119" depart="516.93" from="47755711#3" to="1225123597" departLane="best" type="motorcycle_motorcycle"/>
    <trip id="motorcycle120" depart="521.28" from="4588219#0" to="159081777#0" departLane="best" type="motorcycle_motorcycle"/>
    <trip id="motorcycle121" depart="525.62" from="47755711#0" to="-375459783#0" departLane="best" type="motorcycle_motorcycle"/>
    <trip id="motorcycle122" depart="529.96" from="389101373" to="47755711#2" departLane="best" type="motorcycle_motorcycle"/>
    <trip id="motorcycle123" depart="534.31" from="-753316505" to="199847244#1" departLane="best" type="motorcycle_motorcycle"/>
    <trip id="motorcycle124" depart="538.65" from="-1110752632#3" to="36259518#0" departLane="best" type="motorcycle_motorcycle"/>
    <trip id="motorcycle125" depart="543.00" from="4396109" to="4611869#5" departLane="best" type="motorcycle_motorcycle"/>
    <trip id="motorcycle126" depart="547.34" from="42821876" to="-1191472409#0" departLane="best" type="motorcycle_motorcycle" departSpeed="max"/>
    <trip id="motorcycle127" depart="551.68" from="4611710" to="4611774#2" departLane="best" type="motorcycle_motorcycle"/>
    <trip id="motorcycle128" depart="556.03" from="-327756248#2" to="4588222#1" departLane="best" type="motorcycle_motorcycle"/>
    <trip id="motorcycle129" depart="560.37" from="1110759207#0" to="-531952542#0" departLane="best" type="motorcycle_motorcycle" departSpeed="max"/>
    <trip id="motorcycle130" depart="564.72" from="-1110751835#0" to="-327979621#2" departLane="best" type="motorcycle_motorcycle"/>
    <trip id="motorcycle131" depart="569.06" from="-4611774#2" to="4611869#5" departLane="best" type="motorcycle_motorcycle"/>
    <trip id="motorcycle132" depart="573.40" from="197160273#1" to="1105574289#1" departLane="best" type="motorcycle_motorcycle"/>
    <trip id="motorcycle133" depart="577.75" from="851251671#3" to="11845184#4" departLane="best" type="motorcycle_motorcycle"/>
    <trip id="motorcycle134" depart="582.09" from="67627350#0" to="-1228562464#1" departLane="best" type="motorcycle_motorcycle"/>
    <trip id="motorcycle135" depart="586.43" from="753316506" to="-28402260#2" departLane="best" type="motorcycle_motorcycle"/>
    <trip id="motorcycle136" depart="590.78" from="751604617" to="-4597336" departLane="best" type="motorcycle_motorcycle"/>
    <trip id="motorcycle137" depart="595.12" from="-1152723803" to="1126488562" departLane="best" type="motorcycle_motorcycle"/>
    <trip id="motorcycle138" depart="599.47" from="327756257#2" to="-65040946#3" departLane="best" type="motorcycle_motorcycle"/>
    <trip id="motorcycle139" depart="603.81" from="-67627350#0" to="159081773" departLane="best" type="motorcycle_motorcycle"/>
    <trip id="motorcycle140" depart="608.15" from="-43376693#1" to="327756257#1" departLane="best" type="motorcycle_motorcycle"/>
    <trip id="motorcycle141" depart="612.50" from="-1057180460" to="65040946#6" departLane="best" type="motorcycle_motorcycle"/>
    <trip id="motorcycle142" depart="616.84" from="1152723807" to="32938172" departLane="best" type="motorcycle_motorcycle"/>
    <trip id="motorcycle143" depart="621.19" from="32938173#0" to="24242838#4" departLane="best" type="motorcycle_motorcycle"/>
    <trip id="motorcycle144" depart="625.53" from="23017852#1" to="-67627347" departLane="best" type="motorcycle_motorcycle"/>
    <trip id="motorcycle145" depart="629.87" from="-4597351#1" to="4597353" departLane="best" type="motorcycle_motorcycle" departSpeed="max"/>
    <trip id="motorcycle146" depart="634.22" from="320420912#0" to="-505526660#1" departLane="best" type="motorcycle_motorcycle"/>
    <trip id="motorcycle147" depart="638.56" from="-4597335#3" to="1110749336" departLane="best" type="motorcycle_motorcycle" departSpeed="max"/>
    <trip id="motorcycle148" depart="642.91" from="67627350#1" to="25042806#0" departLane="best" type="motorcycle_motorcycle"/>
    <trip id="motorcycle149" depart="647.25" from="47755711#2" to="197160273#2" departLane="best" type="motorcycle_motorcycle"/>
    <trip id="motorcycle150" depart="651.59" from="-4597325#0" to="1228446781#0" departLane="best" type="motorcycle_motorcycle"/>
    <trip id="motorcycle151" depart="655.94" from="1073015934" to="159081775#1" departLane="best" type="motorcycle_motorcycle"/>
    <trip id="motorcycle152" depart="660.28" from="22972470#0" to="1147413282" departLane="best" type="motorcycle_motorcycle"/>
    <trip id="motorcycle153" depart="664.63" from="1105574288#1" to="-43376693#2" departLane="best" type="motorcycle_motorcycle"/>
    <trip id="motorcycle154" depart="668.97" from="1126488562" to="508410319" departLane="best" type="motorcycle_motorcycle"/>
    <trip id="motorcycle155" depart="673.31" from="43376693#3" to="-24242838#5" departLane="best" type="motorcycle_motorcycle"/>
    <trip id="motorcycle156" depart="677.66" from="168935757#0" to="-681299267" departLane="best" type="motorcycle_motorcycle"/>
    <trip id="motorcycle157" depart="682.00" from="453379904" to="375311157#0" departLane="best" type="motorcycle_motorcycle"/>
    <trip id="motorcycle158" depart="686.35" from="23755720#1" to="-4474915#0" departLane="best" type="motorcycle_motorcycle"/>
    <trip id="motorcycle159" depart="690.69" from="4597324#0" to="-1151333059#1" departLane="best" type="motorcycle_motorcycle"/>
    <trip id="motorcycle160" depart="695.03" from="-851251671#0" to="22972470#1" departLane="best" type="motorcycle_motorcycle"/>
    <trip id="motorcycle161" depart="699.38" from="1147413234#2" to="-4588219#0" departLane="best" type="motorcycle_motorcycle"/>
    <trip id="motorcycle162" depart="703.72" from="22972470#0" to="-1057180954#1" departLane="best" type="motorcycle_motorcycle"/>
    <trip id="motorcycle163" depart="708.07" from="356359316#2" to="43376693#2" departLane="best" type="motorcycle_motorcycle"/>
    <trip id="motorcycle164" depart="712.41" from="1151333056" to="-1147413234#2" departLane="best" type="motorcycle_motorcycle"/>
    <trip id="motorcycle165" depart="716.75" from="1110753055#1" to="4588215#3" departLane="best" type="motorcycle_motorcycle"/>
    <trip id="motorcycle166" depart="721.10" from="23017853" to="884209962#0" departLane="best" type="motorcycle_motorcycle"/>
    <trip id="motorcycle167" depart="725.44" from="4588215#7" to="1228446781#0" departLane="best" type="motorcycle_motorcycle"/>
    <trip id="motorcycle168" depart="729.79" from="47707170#2" to="37289167#4" departLane="best" type="motorcycle_motorcycle"/>
    <trip id="motorcycle169" depart="734.13" from="1132163645#0" to="-4597325#1" departLane="best" type="motorcycle_motorcycle"/>
    <trip id="motorcycle170" depart="738.47" from="-375311158#0" to="23017852#1" departLane="best" type="motorcycle_motorcycle"/>
    <trip id="motorcycle171" depart="742.82" from="37289167#7" to="1152876522#2" departLane="best" type="motorcycle_motorcycle"/>
    <trip id="motorcycle172" depart="747.16" from="-1147413289#2" to="-4611869#3" departLane="best" type="motorcycle_motorcycle"/>
    <trip id="motorcycle173" depart="751.51" from="-453379904" to="-66071387#0" departLane="best" type="motorcycle_motorcycle"/>
    <trip id="motorcycle174" depart="755.85" from="1152723812#0" to="-197160273#0" departLane="best" type="motorcycle_motorcycle"/>
    <trip id="motorcycle175" depart="760.19" from="25776568#1" to="-1147767968#2" departLane="best" type="motorcycle_motorcycle"/>
    <trip id="motorcycle176" depart="764.54" from="-753316506" to="1199404285" departLane="best" type="motorcycle_motorcycle"/>
    <trip id="motorcycle177" depart="768.88" from="-851251671#2" to="-375311158#3" departLane="best" type="motorcycle_motorcycle"/>
    <trip id="motorcycle178" depart="773.23" from="-9536457#1" to="531952547" departLane="best" type="motorcycle_motorcycle"/>
    <trip id="motorcycle179" depart="777.57" from="4597326" to="43348945#0" departLane="best" type="motorcycle_motorcycle"/>
    <trip id="motorcycle180" depart="781.91" from="-67099789#2" to="-1057180954#1" departLane="best" type="motorcycle_motorcycle"/>
    <trip id="motorcycle181" depart="786.26" from="-508410318#1" to="375311158#1" departLane="best" type="motorcycle_motorcycle"/>
    <trip id="motorcycle182" depart="790.60" from="4597325#0" to="707107510#0" departLane="best" type="motorcycle_motorcycle"/>
    <trip id="motorcycle183" depart="794.95" from="-909825429" to="375311155#0" departLane="best" type="motorcycle_motorcycle"/>
    <trip id="motorcycle184" depart="799.29" from="1152876518" to="168928174#1" departLane="best" type="motorcycle_motorcycle"/>
    <trip id="motorcycle185" depart="803.63" from="109781892" to="-1132163645#7" departLane="best" type="motorcycle_motorcycle" departSpeed="max"/>
    <trip id="motorcycle186" depart="807.98" from="1124610827" to="-159081777#3" departLane="best" type="motorcycle_motorcycle"/>
    <trip id="motorcycle187" depart="812.32" from="-707107510#2" to="1252160882" departLane="best" type="motorcycle_motorcycle"/>
    <trip id="motorcycle188" depart="816.66" from="-1110753055#0" to="23755718#1" departLane="best" type="motorcycle_motorcycle"/>
    <trip id="motorcycle189" depart="821.01" from="-1191472409#0" to="1147413272#0" departLane="best" type="motorcycle_motorcycle"/>
    <trip id="motorcycle190" depart="825.35" from="-1136657257" to="1057178318" departLane="best" type="motorcycle_motorcycle" departSpeed="max"/>
    <trip id="motorcycle191" depart="829.70" from="-28402260#2" to="-67099789#2" departLane="best" type="motorcycle_motorcycle"/>
    <trip id="motorcycle192" depart="834.04" from="36259520#0" to="1057178318" departLane="best" type="motorcycle_motorcycle"/>
    <trip id="motorcycle193" depart="838.38" from="356359316#3" to="4597326" departLane="best" type="motorcycle_motorcycle"/>
    <trip id="motorcycle194" depart="842.73" from="-375459783#0" to="-1152723800" departLane="best" type="motorcycle_motorcycle"/>
    <trip id="motorcycle195" depart="847.07" from="-1110748916" to="1191472404" departLane="best" type="motorcycle_motorcycle" departSpeed="max"/>
    <trip id="motorcycle196" depart="851.42" from="98399537" to="-751604617" departLane="best" type="motorcycle_motorcycle"/>
    <trip id="motorcycle197" depart="855.76" from="199847252#0" to="4396302#1" departLane="best" type="motorcycle_motorcycle"/>
    <trip id="motorcycle198" depart="860.10" from="22972469#0" to="375311158#1" departLane="best" type="motorcycle_motorcycle"/>
    <trip id="motorcycle199" depart="864.45" from="707100246" to="-356359316#1" departLane="best" type="motorcycle_motorcycle"/>
    <trip id="motorcycle200" depart="868.79" from="-1110748916" to="-23755718#1" departLane="best" type="motorcycle_motorcycle" departSpeed="max"/>
    <trip id="motorcycle201" depart="873.14" from="-1152880160#0" to="24242838#3" departLane="best" type="motorcycle_motorcycle"/>
    <trip id="motorcycle202" depart="877.48" from="-181472197#0" to="168935757#1" departLane="best" type="motorcycle_motorcycle"/>
    <trip id="motorcycle203" depart="881.82" from="35557161" to="-1228562464#0" departLane="best" type="motorcycle_motorcycle"/>
    <trip id="motorcycle204" depart="886.17" from="453379904" to="751604618" departLane="best" type="motorcycle_motorcycle"/>
    <trip id="motorcycle205" depart="890.51" from="-4597336" to="25042806#0" departLane="best" type="motorcycle_motorcycle"/>
    <trip id="motorcycle206" depart="894.86" from="24242838#0" to="22972469#1" departLane="best" type="motorcycle_motorcycle"/>
    <trip id="motorcycle207" depart="899.20" from="-1152723792#0" to="43376693#3" departLane="best" type="motorcycle_motorcycle"/>
    <trip id="motorcycle208" depart="903.54" from="4597324#2" to="166260139" departLane="best" type="motorcycle_motorcycle"/>
    <trip id="motorcycle209" depart="907.89" from="-1152876521" to="851251671#3" departLane="best" type="motorcycle_motorcycle"/>
    <trip id="motorcycle210" depart="912.23" from="404598738#0" to="-720197826" departLane="best" type="motorcycle_motorcycle"/>
    <trip id="motorcycle211" depart="916.58" from="1057180954#1" to="-909825429" departLane="best" type="motorcycle_motorcycle"/>
    <trip id="motorcycle212" depart="920.92" from="1147755011" to="-707100246" departLane="best" type="motorcycle_motorcycle"/>
    <trip id="motorcycle213" depart="925.26" from="4597324#0" to="4597322#2" departLane="best" type="motorcycle_motorcycle"/>
    <trip id="motorcycle214" depart="929.61" from="-1152723798" to="751604616" departLane="best" type="motorcycle_motorcycle"/>
    <trip id="motorcycle215" depart="933.95" from="176043805" to="4597324#3" departLane="best" type="motorcycle_motorcycle"/>
    <trip id="motorcycle216" depart="938.30" from="25776568#1" to="1132163645#0" departLane="best" type="motorcycle_motorcycle"/>
    <trip id="motorcycle217" depart="942.64" from="328064918#0" to="751604619#0" departLane="best" type="motorcycle_motorcycle"/>
    <trip id="motorcycle218" depart="946.98" from="-4474915#2" to="4588215#8" departLane="best" type="motorcycle_motorcycle"/>
    <trip id="motorcycle219" depart="951.33" from="1152723807" to="1149365722#1" departLane="best" type="motorcycle_motorcycle"/>