<?xml version="1.0" encoding="UTF-8"?>

<!-- generated on 2025-06-30 10:43:08.615280 by osmWebWizard.py v1_23_1+0000-676720d13f6
<configuration>
    <net-file value="C:\Users\Gagana\Sumo\2025-06-30-10-42-46\osm.net.xml.gz"/>
    <output-trip-file value="C:\Users\Gagana\Sumo\2025-06-30-10-42-46\osm.passenger.trips.xml"/>
    <route-file value="C:\Users\Gagana\Sumo\2025-06-30-10-42-46\osm.passenger.rou.xml"/>
    <prefix value="veh"/>
    <trip-attributes value="departLane=&quot;best&quot;"/>
    <fringe-start-attributes value="departSpeed=&quot;max&quot;"/>
    <vehicle-class value="passenger"/>
    <lanes value="True"/>
    <fringe-factor value="5"/>
    <allow-fringe.min-length value="1000.0"/>
    <edge-permission value="passenger"/>
    <via-edge-types value="highway.motorway,highway.motorway_link,highway.trunk_link,highway.primary_link,highway.secondary_link,highway.tertiary_link"/>
    <min-distance value="300.0"/>
    <min-distance.fringe value="10.0"/>
    <remove-loops value="True"/>
    <validate value="True"/>
    <insertion-density value="30.0"/>
</configuration>
-->

<routes xmlns:xsi="http://www.w3.org/2001/XMLSchema-instance" xsi:noNamespaceSchemaLocation="http://sumo.dlr.de/xsd/routes_file.xsd">
   
    <vType id="passenger" vClass="passenger" />

    <trip id="veh0" depart="0.00" from="23017852#0" to="-1132164863" departLane="best" type="passenger"/>
    <trip id="veh1" depart="2.90" from="-4588222#0" to="-475533030" departLane="best" type="passenger"/>
    <trip id="veh2" depart="5.79" from="356359316#3" to="327756248#3" departLane="best" type="passenger"/>
    <trip id="veh3" depart="8.69" from="4611712" to="-1228446781#3" departLane="best" type="passenger"/>
    <trip id="veh4" depart="11.58" from="1110759207#0" to="-1132166349" departLane="best" type="passenger" departSpeed="max"/>
    <trip id="veh5" depart="14.48" from="-327756248#3" to="147150379" departLane="best" type="passenger" departSpeed="max"/>
    <trip id="veh6" depart="17.38" from="-1110751835#0" to="-4597335#1" departLane="best" type="passenger"/>
    <trip id="veh7" depart="20.27" from="23755731#2" to="160971199" departLane="best" type="passenger"/>
    <trip id="veh8" depart="23.17" from="-327756257#1" to="23755961" departLane="best" type="passenger"/>
    <trip id="veh9" depart="26.06" from="42821876" to="-1057180954#1" departLane="best" type="passenger" departSpeed="max"/>
    <trip id="veh10" depart="28.96" from="404598741#1" to="356359316#3" departLane="best" type="passenger"/>
    <trip id="veh11" depart="31.86" from="-542983664" to="-375311155#2" departLane="best" type="passenger" departSpeed="max"/>
    <trip id="veh12" depart="34.75" from="710761406#2" to="1116508491" departLane="best" type="passenger"/>
    <trip id="veh13" depart="37.65" from="-1147648945#0" to="-159081777#1" departLane="best" type="passenger"/>
    <trip id="veh14" depart="40.54" from="-47755711#3" to="1132163645#5" departLane="best" type="passenger"/>
    <trip id="veh15" depart="43.44" from="404598741#1" to="375311155#0" departLane="best" type="passenger"/>
    <trip id="veh16" depart="46.34" from="1199889721#1" to="81113584#0" departLane="best" type="passenger"/>
    <trip id="veh17" depart="49.23" from="-753316506" to="166260138#0" departLane="best" type="passenger"/>
    <trip id="veh18" depart="52.13" from="4396109" to="25042806#0" departLane="best" type="passenger"/>
    <trip id="veh19" depart="55.02" from="4588219#2" to="23017852#0" departLane="best" type="passenger"/>
    <trip id="veh20" depart="57.92" from="327462543#0" to="-1147413288#1" departLane="best" type="passenger"/>
    <trip id="veh21" depart="60.82" from="-35557161" to="-85255869#1" departLane="best" type="passenger"/>
    <trip id="veh22" depart="63.71" from="-1147413276" to="-531952542#0" departLane="best" type="passenger" departSpeed="max"/>
    <trip id="veh23" depart="66.61" from="-1147767966#0" to="-851251670#0" departLane="best" type="passenger"/>
    <trip id="veh24" depart="69.50" from="22972470#2" to="1124763679#0" departLane="best" type="passenger"/>
    <trip id="veh25" depart="72.40" from="-710761406#0" to="-4611711" departLane="best" type="passenger"/>
    <trip id="veh26" depart="75.30" from="-4588215#4" to="66071387#3" departLane="best" type="passenger"/>
    <trip id="veh27" depart="78.19" from="-22972469#0" to="375311153" departLane="best" type="passenger"/>
    <trip id="veh28" depart="81.09" from="1252160881#0" to="328064918#0" departLane="best" type="passenger"/>
    <trip id="veh29" depart="83.98" from="-356359316#1" to="-1132167289#2" departLane="best" type="passenger"/>
    <trip id="veh30" depart="86.88" from="-4611886" to="-751604617" departLane="best" type="passenger" departSpeed="max"/>
    <trip id="veh31" depart="89.78" from="4597335#1" to="1105574288#0" departLane="best" type="passenger"/>
    <trip id="veh32" depart="92.67" from="24214089#1" to="1147413271#0" departLane="best" type="passenger"/>
    <trip id="veh33" depart="95.57" from="-4588215#2" to="-66071387#4" departLane="best" type="passenger"/>
    <trip id="veh34" depart="98.46" from="1252995263" to="-707100246" departLane="best" type="passenger" departSpeed="max"/>

    <trip id="veh35" depart="101.36" from="159081777#1" to="508410318#0" departLane="best" type="passenger"/>
    <trip id="veh36" depart="104.26" from="109781892" to="-461905067#2" departLane="best" type="passenger" departSpeed="max"/>
    <trip id="veh37" depart="107.15" from="389101374" to="1147767890" departLane="best" type="passenger"/>
    <trip id="veh38" depart="110.05" from="-1147413271#1" to="1132166702#0" departLane="best" type="passenger" departSpeed="max"/>
    <trip id="veh39" depart="112.94" from="9536457#1" to="160971191#3" departLane="best" type="passenger"/>
    <trip id="veh40" depart="115.84" from="763211372" to="475533028" departLane="best" type="passenger"/>
    <trip id="veh41" depart="118.73" from="-1079386620#2" to="37289167#3" departLane="best" type="passenger" departSpeed="max"/>
    <trip id="veh42" depart="121.63" from="28108856#0" to="160971194#1" departLane="best" type="passenger"/>
    <trip id="veh43" depart="124.53" from="-4588215#4" to="309644167" departLane="best" type="passenger"/>
    <trip id="veh44" depart="127.42" from="-1151333062" to="1151333058" departLane="best" type="passenger"/>
    <trip id="veh45" depart="130.32" from="1132163645#1" to="707100248" departLane="best" type="passenger"/>
    <trip id="veh46" depart="133.21" from="4597326" to="-707100246" departLane="best" type="passenger"/>
    <trip id="veh47" depart="136.11" from="1152723801" to="-4588215#2" departLane="best" type="passenger"/>
    <trip id="veh48" depart="139.01" from="47755711#3" to="48859715#0" departLane="best" type="passenger"/>
    <trip id="veh49" depart="141.90" from="16374191#0" to="-356359316#3" departLane="best" type="passenger"/>
    <trip id="veh50" depart="144.80" from="375311157#0" to="160971194#0" departLane="best" type="passenger"/>
    <trip id="veh51" depart="147.69" from="-1057178318" to="110786129#0" departLane="best" type="passenger"/>
    <trip id="veh52" depart="150.59" from="-1110748916" to="632065766" departLane="best" type="passenger" departSpeed="max"/>
    <trip id="veh53" depart="153.49" from="-4611774#1" to="-1151333059#0" departLane="best" type="passenger"/>
    <trip id="veh54" depart="156.38" from="-1147413276" to="1228469479" departLane="best" type="passenger" departSpeed="max"/>
    <trip id="veh55" depart="159.28" from="-1147413272#1" to="404598741#0" departLane="best" type="passenger" departSpeed="max"/>
    <trip id="veh56" depart="162.17" from="37289167#7" to="-24997595#1" departLane="best" type="passenger"/>
    <trip id="veh57" depart="165.07" from="1147755011" to="16374191#0" departLane="best" type="passenger"/>
    <trip id="veh58" depart="167.97" from="-4588215#2" to="48859716" departLane="best" type="passenger"/>
    <trip id="veh59" depart="170.86" from="1110759207#0" to="-4611773" departLane="best" type="passenger" departSpeed="max"/>
    <trip id="veh60" depart="173.76" from="1211324961" to="375311155#0" departLane="best" type="passenger" departSpeed="max"/>
    <trip id="veh61" depart="176.65" from="-28402260#2" to="1079386620#1" departLane="best" type="passenger"/>
    <trip id="veh62" depart="179.55" from="1123184403" to="159081773" departLane="best" type="passenger"/>
    <trip id="veh63" depart="182.45" from="-1152723812#2" to="-47755711#0" departLane="best" type="passenger"/>
    <trip id="veh64" depart="185.34" from="-531952567" to="23755731#2" departLane="best" type="passenger"/>
    <trip id="veh65" depart="188.24" from="-356359316#2" to="-461905068#0" departLane="best" type="passenger"/>
    <trip id="veh66" depart="191.13" from="-1147413272#1" to="309644159#0" departLane="best" type="passenger" departSpeed="max"/>
    <trip id="veh67" depart="194.03" from="-356359316#1" to="531952547" departLane="best" type="passenger"/>
    <trip id="veh68" depart="196.93" from="4588219#0" to="-1152723814#0" departLane="best" type="passenger"/>
    <trip id="veh69" depart="199.82" from="-375311153" to="327462545#0" departLane="best" type="passenger" departSpeed="max"/>
    <trip id="veh70" depart="202.72" from="-327756248#3" to="-28402260#2" departLane="best" type="passenger" departSpeed="max"/>
    <trip id="veh71" depart="205.61" from="66071387#4" to="22972469#1" departLane="best" type="passenger"/>
    <trip id="veh72" depart="208.51" from="1147413289#0" to="4396503#1" departLane="best" type="passenger"/>
    <trip id="veh73" depart="211.41" from="404598741#1" to="-4597322#1" departLane="best" type="passenger"/>
    <trip id="veh74" depart="214.30" from="-1147767890" to="1151333056" departLane="best" type="passenger" departSpeed="max"/>
    <trip id="veh75" depart="217.20" from="1110759207#0" to="11845184#2" departLane="best" type="passenger" departSpeed="max"/>
    <trip id="veh76" depart="220.09" from="34832961" to="327756248#3" departLane="best" type="passenger"/>
    <trip id="veh77" depart="222.99" from="85255869#0" to="-159081779" departLane="best" type="passenger" departSpeed="max"/>
    <trip id="veh78" depart="225.89" from="109781892" to="1121496496" departLane="best" type="passenger" departSpeed="max"/>
    <trip id="veh79" depart="228.78" from="4588219#2" to="-67099789#2" departLane="best" type="passenger"/>
    <trip id="veh80" depart="231.68" from="-24242835" to="1152723812#2" departLane="best" type="passenger" departSpeed="max"/>
    <trip id="veh81" depart="234.57" from="1110759207#0" to="-851251671#0" departLane="best" type="passenger" departSpeed="max"/>
    <trip id="veh82" depart="237.47" from="-43376693#3" to="555858098#0" departLane="best" type="passenger"/>
    <trip id="veh83" depart="240.37" from="1124624271" to="475533028" departLane="best" type="passenger"/>
    <trip id="veh84" depart="243.26" from="1228469479" to="-1147767966#0" departLane="best" type="passenger"/>
    <trip id="veh85" depart="246.16" from="98399537" to="4597351#1" departLane="best" type="passenger"/>
    <trip id="veh86" depart="249.05" from="763211372" to="632065766" departLane="best" type="passenger"/>
    <trip id="veh87" depart="251.95" from="453379904" to="-435164424" departLane="best" type="passenger"/>
    <trip id="veh88" depart="254.85" from="1149365723" to="-4611774#1" departLane="best" type="passenger" departSpeed="max"/>
    <trip id="veh89" depart="257.74" from="109781892" to="-1151333059#1" departLane="best" type="passenger" departSpeed="max"/>
    <trip id="veh90" depart="260.64" from="-753316506" to="851251671#2" departLane="best" type="passenger"/>
    <trip id="veh91" depart="263.53" from="-4588215#2" to="4396302#1" departLane="best" type="passenger"/>
    <trip id="veh92" depart="266.43" from="1132164893#1" to="1147767890" departLane="best" type="passenger"/>
    <trip id="veh93" depart="269.33" from="710761406#2" to="9536457#0" departLane="best" type="passenger"/>
    <trip id="veh94" depart="272.22" from="1249342904#1" to="36259520#0" departLane="best" type="passenger"/>
    <trip id="veh95" depart="275.12" from="-15388688" to="-9536457#0" departLane="best" type="passenger" departSpeed="max"/>
    <trip id="veh96" depart="278.01" from="753316506" to="23017852#2" departLane="best" type="passenger"/>
    <trip id="veh97" depart="280.91" from="1211324961" to="375312063#0" departLane="best" type="passenger" departSpeed="max"/>
    <trip id="veh98" depart="283.81" from="1152723807" to="4611886" departLane="best" type="passenger"/>
    <trip id="veh99" depart="286.70" from="-1147413276" to="-4588219#0" departLane="best" type="passenger" departSpeed="max"/>
    <trip id="veh100" depart="289.60" from="160971194#1" to="327756248#3" departLane="best" type="passenger"/>
    <trip id="veh101" depart="292.49" from="-375311153" to="-23755731#2" departLane="best" type="passenger" departSpeed="max"/>
    <trip id="veh102" depart="295.39" from="4611710" to="-66071387#4" departLane="best" type="passenger"/>
    <trip id="veh103" depart="298.29" from="160971194#0" to="25042806#1" departLane="best" type="passenger"/>
    <trip id="veh104" depart="301.18" from="1110752486" to="23755720#0" departLane="best" type="passenger"/>
    <trip id="veh105" depart="304.08" from="11845184#3" to="65040958#0" departLane="best" type="passenger"/>
    <trip id="veh106" depart="306.97" from="-305640730#0" to="36259520#0" departLane="best" type="passenger"/>
    <trip id="veh107" depart="309.87" from="-375311153" to="1147413271#0" departLane="best" type="passenger" departSpeed="max"/>
    <trip id="veh108" depart="312.77" from="25041940#1" to="-9657820#0" departLane="best" type="passenger"/>
    <trip id="veh109" depart="315.66" from="-461905067#2" to="389101374" departLane="best" type="passenger"/>
    <trip id="veh110" depart="318.56" from="9657820#1" to="9536457#1" departLane="best" type="passenger"/>
    <trip id="veh111" depart="321.45" from="-4588215#2" to="65040946#4" departLane="best" type="passenger"/>
    <trip id="veh112" depart="324.35" from="4597351#0" to="48859716" departLane="best" type="passenger"/>
    <trip id="veh113" depart="327.25" from="-707107510#2" to="-375311158#3" departLane="best" type="passenger"/>
    <trip id="veh114" depart="330.14" from="4396528#0" to="36259516#0" departLane="best" type="passenger"/>
    <trip id="veh115" depart="333.04" from="24214089#1" to="-1079386620#0" departLane="best" type="passenger"/>
    <trip id="veh116" depart="335.93" from="42821876" to="-9657820#0" departLane="best" type="passenger" departSpeed="max"/>
    <trip id="veh117" depart="338.83" from="24214089#5" to="665241888" departLane="best" type="passenger"/>
    <trip id="veh118" depart="341.73" from="-1152880161" to="-23755718#1" departLane="best" type="passenger"/>
    <trip id="veh119" depart="344.62" from="-4588219#0" to="24242835" departLane="best" type="passenger"/>
    <trip id="veh120" depart="347.52" from="328064918#0" to="-4597354#1" departLane="best" type="passenger"/>
    <trip id="veh121" depart="350.41" from="22972470#0" to="-707107510#2" departLane="best" type="passenger"/>
    <trip id="veh122" depart="353.31" from="1151333057#0" to="531952547" departLane="best" type="passenger"/>
    <trip id="veh123" depart="356.20" from="4474915#2" to="-1249342904#1" departLane="best" type="passenger"/>
    <trip id="veh124" depart="359.10" from="1110759207#0" to="-851251670#0" departLane="best" type="passenger" departSpeed="max"/>
    <trip id="veh125" depart="362.00" from="-1057180954#0" to="43376693#3" departLane="best" type="passenger"/>
    <trip id="veh126" depart="364.89" from="22972470#3" to="-707100246" departLane="best" type="passenger"/>
    <trip id="veh127" depart="367.79" from="36259516#0" to="166260138#0" departLane="best" type="passenger"/>
    <trip id="veh128" depart="370.68" from="1110759207#0" to="-1105574288#0" departLane="best" type="passenger" departSpeed="max"/>
    <trip id="veh129" depart="373.58" from="461905068#2" to="160971199" departLane="best" type="passenger"/>
    <trip id="veh130" depart="376.48" from="4396528#3" to="23755718#1" departLane="best" type="passenger"/>
    <trip id="veh131" depart="379.37" from="-4611774#2" to="508410319" departLane="best" type="passenger"/>
    <trip id="veh132" depart="382.27" from="4611869#3" to="-4611711" departLane="best" type="passenger"/>
    <trip id="veh133" depart="385.16" from="-43376693#3" to="-168935757#1" departLane="best" type="passenger"/>
    <trip id="veh134" depart="388.06" from="1105574288#0" to="25042806#2" departLane="best" type="passenger"/>
    <trip id="veh135" depart="390.96" from="-15388688" to="632065766" departLane="best" type="passenger" departSpeed="max"/>
    <trip id="veh136" depart="393.85" from="-1110750064" to="375311157#0" departLane="best" type="passenger"/>
    <trip id="veh137" depart="396.75" from="-508410319" to="65040946#2" departLane="best" type="passenger" departSpeed="max"/>
    <trip id="veh138" depart="399.64" from="404598741#1" to="47707170#2" departLane="best" type="passenger"/>
    <trip id="veh139" depart="402.54" from="42821876" to="-720197826" departLane="best" type="passenger" departSpeed="max"/>
    <trip id="veh140" depart="405.44" from="375312063#0" to="-197160273#4" departLane="best" type="passenger"/>
    <trip id="veh141" depart="408.33" from="4597324#3" to="461905068#1" departLane="best" type="passenger"/>
    <trip id="veh142" depart="411.23" from="-327756257#2" to="4597322#3" departLane="best" type="passenger"/>
    <trip id="veh143" depart="414.12" from="1132167972" to="1073015934" departLane="best" type="passenger"/>
    <trip id="veh144" depart="417.02" from="404598738#0" to="-47755711#3" departLane="best" type="passenger"/>
    <trip id="veh145" depart="419.92" from="-1110748916" to="-4597324#0" departLane="best" type="passenger" departSpeed="max"/>
    <trip id="veh146" depart="422.81" from="-505526660#1" to="47707170#2" departLane="best" type="passenger"/>
    <trip id="veh147" depart="425.71" from="753316505" to="-851251671#0" departLane="best" type="passenger"/>
    <trip id="veh148" depart="428.60" from="23017852#2" to="1147413271#0" departLane="best" type="passenger"/>
    <trip id="veh149" depart="431.50" from="851251671#3" to="160971194#1" departLane="best" type="passenger"/>
    <trip id="veh150" depart="434.40" from="67099789#0" to="-23755718#1" departLane="best" type="passenger"/>
    <trip id="veh151" depart="437.29" from="763211372" to="-4588215#2" departLane="best" type="passenger"/>
    <trip id="veh152" depart="440.19" from="751604617" to="-710761406#0" departLane="best" type="passenger"/>
    <trip id="veh153" depart="443.08" from="-1151333059#0" to="1151333058" departLane="best" type="passenger"/>
    <trip id="veh154" depart="445.98" from="335462921#0" to="110032714#1" departLane="best" type="passenger"/>
    <trip id="veh155" depart="448.88" from="-851251671#2" to="22972470#4" departLane="best" type="passenger"/>
    <trip id="veh156" depart="451.77" from="1211324961" to="37289167#3" departLane="best" type="passenger" departSpeed="max"/>
    <trip id="veh157" depart="454.67" from="36259516#0" to="327462545#0" departLane="best" type="passenger"/>
    <trip id="veh158" depart="457.56" from="-67627350#1" to="-1152723812#2" departLane="best" type="passenger"/>
    <trip id="veh159" depart="460.46" from="24214089#5" to="1110748916" departLane="best" type="passenger"/>
    <trip id="veh160" depart="463.36" from="328064919#0" to="-9657820#1" departLane="best" type="passenger" departSpeed="max"/>
    <trip id="veh161" depart="466.25" from="-4611869#0" to="1147413288#1" departLane="best" type="passenger"/>
    <trip id="veh162" depart="469.15" from="109781892" to="-9536457#0" departLane="best" type="passenger" departSpeed="max"/>
    <trip id="veh163" depart="472.04" from="-1152723819" to="1147767890" departLane="best" type="passenger" departSpeed="max"/>
    <trip id="veh164" depart="474.94" from="461905068#1" to="25041996#0" departLane="best" type="passenger"/>
    <trip id="veh165" depart="477.84" from="-4600250" to="16374191#0" departLane="best" type="passenger"/>
    <trip id="veh166" depart="480.73" from="-1057178318" to="-85255869#1" departLane="best" type="passenger"/>
    <trip id="veh167" depart="483.63" from="1110759207#0" to="23017852#2" departLane="best" type="passenger" departSpeed="max"/>
    <trip id="veh168" depart="486.52" from="1124624271" to="-4611774#1" departLane="best" type="passenger"/>
    <trip id="veh169" depart="489.42" from="1147648944" to="508410319" departLane="best" type="passenger"/>
    <trip id="veh170" depart="492.32" from="404598738#0" to="-4396528#2" departLane="best" type="passenger"/>
    <trip id="veh171" depart="495.21" from="-1147413276" to="159081772#3" departLane="best" type="passenger" departSpeed="max"/>
    <trip id="veh172" depart="498.11" from="22972469#1" to="1110753055#1" departLane="best" type="passenger"/>
    <trip id="veh173" depart="501.00" from="43348945#0" to="389101374" departLane="best" type="passenger"/>
    <trip id="veh174" depart="503.90" from="25041996#0" to="-47755711#0" departLane="best" type="passenger"/>
    <trip id="veh175" depart="506.80" from="4579366" to="-1152876521" departLane="best" type="passenger"/>
    <trip id="veh176" depart="509.69" from="110786129#0" to="309644159#0" departLane="best" type="passenger"/>
    <trip id="veh177" depart="512.59" from="-24242838#4" to="356359316#2" departLane="best" type="passenger"/>
    <trip id="veh178" depart="515.48" from="1151333059#1" to="-66071387#2" departLane="best" type="passenger"/>
    <trip id="veh179" depart="518.38" from="24214089#2" to="-1057180954#1" departLane="best" type="passenger"/>
    <trip id="veh180" depart="521.28" from="36259518#0" to="43376693#2" departLane="best" type="passenger"/>
    <trip id="veh181" depart="524.17" from="-1151333058" to="1147767966#1" departLane="best" type="passenger"/>
    <trip id="veh182" depart="527.07" from="-23017853" to="710761406#0" departLane="best" type="passenger"/>
    <trip id="veh183" depart="529.96" from="-43376693#2" to="4611869#0" departLane="best" type="passenger"/>
    <trip id="veh184" depart="532.86" from="1132165078#1" to="4588215#4" departLane="best" type="passenger"/>
    <trip id="veh185" depart="535.76" from="24242838#3" to="851251671#3" departLane="best" type="passenger"/>
    <trip id="veh186" depart="538.65" from="4611712" to="24997595#1" departLane="best" type="passenger"/>
    <trip id="veh187" depart="541.55" from="328064919#0" to="1256804156#2" departLane="best" type="passenger" departSpeed="max"/>
    <trip id="veh188" depart="544.44" from="4396109" to="160971204#0" departLane="best" type="passenger"/>
    <trip id="veh189" depart="547.34" from="4611869#0" to="375311158#1" departLane="best" type="passenger"/>
    <trip id="veh190" depart="550.24" from="1147648945#1" to="-707100246" departLane="best" type="passenger"/>
    <trip id="veh191" depart="553.13" from="-43376693#0" to="309644163#1" departLane="best" type="passenger"/>
    <trip id="veh192" depart="556.03" from="-1147413276" to="-85255869#1" departLane="best" type="passenger" departSpeed="max"/>
    <trip id="veh193" depart="558.92" from="-4588215#8" to="1105574292" departLane="best" type="passenger"/>
    <trip id="veh194" depart="561.82" from="1211324961" to="-327462545#3" departLane="best" type="passenger" departSpeed="max"/>
    <trip id="veh195" depart="564.72" from="327462545#0" to="-1152723798" departLane="best" type="passenger"/>
    <trip id="veh196" depart="567.61" from="1105574289#0" to="160971198#0" departLane="best" type="passenger"/>
    <trip id="veh197" depart="570.51" from="110786129#0" to="-4597354#1" departLane="best" type="passenger"/>
    <trip id="veh198" depart="573.40" from="1110752772" to="531952542#1" departLane="best" type="passenger"/>
    <trip id="veh199" depart="576.30" from="159081777#1" to="356359316#2" departLane="best" type="passenger"/>
    <trip id="veh200" depart="579.20" from="4588215#6" to="404598741#1" departLane="best" type="passenger"/>
    <trip id="veh201" depart="582.09" from="-81113584#2" to="-1057180954#1" departLane="best" type="passenger"/>
    <trip id="veh202" depart="584.99" from="-65040958#2" to="404598738#0" departLane="best" type="passenger"/>
    <trip id="veh203" depart="587.88" from="4588215#3" to="707100248" departLane="best" type="passenger"/>
    <trip id="veh204" depart="590.78" from="1110752486" to="375312063#0" departLane="best" type="passenger"/>
    <trip id="veh205" depart="593.67" from="1211324961" to="24242835" departLane="best" type="passenger" departSpeed="max"/>
    <trip id="veh206" depart="596.57" from="-327756257#1" to="-461905067#2" departLane="best" type="passenger"/>
    <trip id="veh207" depart="599.47" from="1121496496" to="-1132165078#0" departLane="best" type="passenger"/>
    <trip id="veh208" depart="602.36" from="110032714#1" to="-43376693#4" departLane="best" type="passenger"/>
    <trip id="veh209" depart="605.26" from="1147413274" to="-24997595#0" departLane="best" type="passenger"/>
    <trip id="veh210" depart="608.15" from="181472197#1" to="-1132164893#0" departLane="best" type="passenger"/>
    <trip id="veh211" depart="611.05" from="1057180954#1" to="197160273#2" departLane="best" type="passenger"/>
    <trip id="veh212" depart="613.95" from="-1110752632#3" to="309644167" departLane="best" type="passenger"/>
    <trip id="veh213" depart="616.84" from="-1136657257" to="1132164893#1" departLane="best" type="passenger" departSpeed="max"/>
    <trip id="veh214" depart="619.74" from="-327462543#2" to="1110748916" departLane="best" type="passenger"/>
    <trip id="veh215" depart="622.63" from="37289167#3" to="1132164893#1" departLane="best" type="passenger"/>
    <trip id="veh216" depart="625.53" from="-435164424" to="-1191472404" departLane="best" type="passenger"/>
    <trip id="veh217" depart="628.43" from="-1110748916" to="160971198#0" departLane="best" type="passenger" departSpeed="max"/>
    <trip id="veh218" depart="631.32" from="98399537" to="1123184404#0" departLane="best" type="passenger"/>
    <trip id="veh219" depart="634.22" from="23755731#2" to="4396302#1" departLane="best" type="passenger"/>
    <trip id="veh220" depart="637.11" from="24214089#0" to="404598738#0" departLane="best" type="passenger"/>
    <trip id="veh221" depart="640.01" from="694745015" to="-4597335#2" departLane="best" type="passenger"/>
    <trip id="veh222" depart="642.91" from="-1110748916" to="-356359316#3" departLane="best" type="passenger" departSpeed="max"/>
    <trip id="veh223" depart="645.80" from="-1152723819" to="327462545#0" departLane="best" type="passenger" departSpeed="max"/>
    <trip id="veh224" depart="648.70" from="1252995263" to="-461905067#2" departLane="best" type="passenger" departSpeed="max"/>
    <trip id="veh225" depart="651.59" from="320420912#0" to="43348945#0" departLane="best" type="passenger"/>
    <trip id="veh226" depart="654.49" from="-197160273#0" to="24242835" departLane="best" type="passenger"/>
    <trip id="veh227" depart="657.39" from="36259516#1" to="-23755718#0" departLane="best" type="passenger"/>
    <trip id="veh228" depart="660.28" from="43348945#0" to="751604618" departLane="best" type="passenger"/>
    <trip id="veh229" depart="663.18" from="-1151333059#0" to="-1132164863" departLane="best" type="passenger"/>
    <trip id="veh230" depart="666.07" from="-4611886" to="327756257#1" departLane="best" type="passenger" departSpeed="max"/>
    <trip id="veh231" depart="668.97" from="710761408#0" to="1147413271#0" departLane="best" type="passenger"/>
    <trip id="veh232" depart="671.87" from="327979624" to="-1152876524#2" departLane="best" type="passenger"/>
    <trip id="veh233" depart="674.76" from="-1147767968#0" to="43376693#4" departLane="best" type="passenger"/>
    <trip id="veh234" depart="677.66" from="-1152723812#2" to="851251671#0" departLane="best" type="passenger"/>
    <trip id="veh235" depart="680.55" from="1152723812#2" to="1123184403" departLane="best" type="passenger"/>
    <trip id="veh236" depart="683.45" from="4579366" to="4597326" departLane="best" type="passenger"/>
    <trip id="veh237" depart="686.35" from="-1151333057#1" to="710761408#0" departLane="best" type="passenger"/>
    <trip id="veh238" depart="689.24" from="22972470#2" to="4597335#3" departLane="best" type="passenger"/>
    <trip id="veh239" depart="692.14" from="327462545#0" to="1151333059#0" departLane="best" type="passenger"/>
    <trip id="veh240" depart="695.03" from="356359316#2" to="751604618" departLane="best" type="passenger"/>
    <trip id="veh241" depart="697.93" from="-4588215#7" to="4588219#1" departLane="best" type="passenger"/>
    <trip id="veh242" depart="700.83" from="1211324961" to="1225123597" departLane="best" type="passenger" departSpeed="max"/>
    <trip id="veh243" depart="703.72" from="1121496496" to="375311155#0" departLane="best" type="passenger"/>
    <trip id="veh244" depart="706.62" from="-4588215#5" to="4611886" departLane="best" type="passenger"/>
    <trip id="veh245" depart="709.51" from="4396109" to="-1228446781#3" departLane="best" type="passenger"/>
    <trip id="veh246" depart="712.41" from="4597351#0" to="-66071387#2" departLane="best" type="passenger"/>
    <trip id="veh247" depart="715.31" from="-327462545#3" to="4579366" departLane="best" type="passenger"/>
    <trip id="veh248" depart="718.20" from="-542983664" to="48859716" departLane="best" type="passenger" departSpeed="max"/>
    <trip id="veh249" depart="721.10" from="320420912#0" to="-851251670#0" departLane="best" type="passenger"/>