<?xml version="1.0" encoding="UTF-8"?>

<!-- generated on 2025-12-24 13:56:48.816458 by osmWebWizard.py v1_23_1+0000-676720d13f6
<configuration>
    <net-file value="C:\Users\Gagana\Sumo\2025-12-24-13-56-05\osm.net.xml.gz"/>
    <output-trip-file value="C:\Users\Gagana\Sumo\2025-12-24-13-56-05\osm.bus.trips.xml"/>
    <route-file value="C:\Users\Gagana\Sumo\2025-12-24-13-56-05\osm.bus.rou.xml"/>
    <prefix value="bus"/>
    <trip-attributes value="departLane=&quot;best&quot;"/>
    <fringe-start-attributes value="departSpeed=&quot;max&quot;"/>
    <vehicle-class value="bus"/>
    <fringe-factor value="15"/>
    <edge-permission value="bus"/>
    <via-edge-types value="highway.motorway,highway.motorway_link,highway.trunk_link,highway.primary_link,highway.secondary_link,highway.tertiary_link"/>
    <min-distance value="600.0"/>
    <min-distance.fringe value="10.0"/>
    <remove-loops value="True"/>
    <validate value="True"/>
    <insertion-density value="30.0"/>
</configuration>
-->

<routes xmlns:xsi="http://www.w3.org/2001/XMLSchema-instance" xsi:noNamespaceSchemaLocation="http://sumo.dlr.de/xsd/routes_file.xsd">
    <vType id="bus_bus" vClass="bus"/>
    <trip id="bus0" depart="0.00" from="-4615497" to="-4613300#1" departLane="best" type="bus_bus" departSpeed="max"/>
    <trip id="bus1" depart="6.00" from="310357283#0" to="-1040630268#3" departLane="best" type="bus_bus" departSpeed="max"/>
    <trip id="bus2" depart="12.00" from="310357283#0" to="304162878#1" departLane="best" type="bus_bus" departSpeed="max"/>
    <trip id="bus3" depart="18.00" from="-1107953482" to="-4614987#2" departLane="best" type="bus_bus" departSpeed="max"/>
    <trip id="bus4" depart="24.00" from="147646826#0" to="1105526111#1" departLane="best" type="bus_bus" departSpeed="max"/>
    <trip id="bus5" depart="30.00" from="1083617992#3" to="-373389574#1" departLane="best" type="bus_bus"/>
    <trip id="bus6" depart="36.00" from="147646826#1" to="24914141#8" departLane="best" type="bus_bus"/>
    <trip id="bus7" depart="42.00" from="-24149429#1" to="311690284" departLane="best" type="bus_bus"/>
    <trip id="bus8" depart="48.00" from="728838409" to="24968394" departLane="best" type="bus_bus" departSpeed="max"/>
    <trip id="bus9" depart="54.00" from="4790810" to="1144528537#1" departLane="best" type="bus_bus" departSpeed="max"/>
    <trip id="bus10" depart="60.01" from="-4615497" to="-4615404#2" departLane="best" type="bus_bus" departSpeed="max"/>
    <trip id="bus11" depart="66.01" from="1373064823#0" to="-48303485#1" departLane="best" type="bus_bus" departSpeed="max"/>
    <trip id="bus12" depart="72.01" from="1373064823#0" to="4615407#3" departLane="best" type="bus_bus" departSpeed="max"/>
    <trip id="bus13" depart="78.01" from="-1055304388" to="311690284" departLane="best" type="bus_bus"/>
    <trip id="bus14" depart="84.01" from="-4615497" to="24968394" departLane="best" type="bus_bus" departSpeed="max"/>
    <trip id="bus15" depart="90.01" from="1107953489" to="4790801" departLane="best" type="bus_bus"/>
    <trip id="bus16" depart="96.01" from="4614987#6" to="-48303485#1" departLane="best" type="bus_bus"/>
    <trip id="bus17" depart="102.01" from="4790810" to="4614987#1" departLane="best" type="bus_bus" departSpeed="max"/>
    <trip id="bus18" depart="108.01" from="-566764344#1" to="24968394" departLane="best" type="bus_bus"/>
    <trip id="bus19" depart="114.01" from="4614989#1" to="333369841" departLane="best" type="bus_bus"/>
    <trip id="bus20" depart="120.01" from="-671026861#2" to="-110464119#2" departLane="best" type="bus_bus"/>
    <trip id="bus21" depart="126.01" from="-1107953482" to="1410118066#0" departLane="best" type="bus_bus" departSpeed="max"/>
    <trip id="bus22" depart="132.01" from="-1107953482" to="31619761" departLane="best" type="bus_bus" departSpeed="max"/>
    <trip id="bus23" depart="138.01" from="-4615497" to="4614987#2" departLane="best" type="bus_bus" departSpeed="max"/>
    <trip id="bus24" depart="144.01" from="-137954786" to="-4613300#2" departLane="best" type="bus_bus"/>
    <trip id="bus25" depart="150.01" from="-1107953482" to="24968394" departLane="best" type="bus_bus" departSpeed="max"/>
    <trip id="bus26" depart="156.01" from="-4613306#0" to="4615466" departLane="best" type="bus_bus"/>
    <trip id="bus27" depart="162.01" from="1134090050" to="319339413#4" departLane="best" type="bus_bus"/>
    <trip id="bus28" depart="168.02" from="1105526087" to="-671026861#1" departLane="best" type="bus_bus" departSpeed="max"/>
    <trip id="bus29" depart="174.02" from="1095365675#2" to="566764344#2" departLane="best" type="bus_bus"/>
    <trip id="bus30" depart="180.02" from="-4615497" to="319339413#4" departLane="best" type="bus_bus" departSpeed="max"/>
    <trip id="bus31" depart="186.02" from="-173197451#6" to="1055302850#1" departLane="best" type="bus_bus"/>
    <trip id="bus32" depart="192.02" from="728838409" to="24149429#0" departLane="best" type="bus_bus" departSpeed="max"/>
    <trip id="bus33" depart="198.02" from="1152689710" to="31619761" departLane="best" type="bus_bus" departSpeed="max"/>
    <trip id="bus34" depart="204.02" from="-182620302#0" to="4790822" departLane="best" type="bus_bus"/>
    <trip id="bus35" depart="210.02" from="1410118066#0" to="298026906#1" departLane="best" type="bus_bus"/>
    <trip id="bus36" depart="216.02" from="909009143" to="780281639" departLane="best" type="bus_bus"/>
    <trip id="bus37" depart="222.02" from="-1107953482" to="-4613299#1" departLane="best" type="bus_bus" departSpeed="max"/>
    <trip id="bus38" depart="228.02" from="173197451#2" to="-1055302850#0" departLane="best" type="bus_bus"/>
    <trip id="bus39" depart="234.02" from="310357283#0" to="1055409898#1" departLane="best" type="bus_bus" departSpeed="max"/>
    <trip id="bus40" depart="240.02" from="182620302#2" to="4790801" departLane="best" type="bus_bus"/>
    <trip id="bus41" depart="246.02" from="147646826#0" to="-48303485#2" departLane="best" type="bus_bus" departSpeed="max"/>
    <trip id="bus42" depart="252.02" from="1105526087" to="-671026861#0" departLane="best" type="bus_bus" departSpeed="max"/>
    <trip id="bus43" depart="258.02" from="-1040630268#1" to="319339413#2" departLane="best" type="bus_bus"/>
    <trip id="bus44" depart="264.02" from="147646826#0" to="-48303485#1" departLane="best" type="bus_bus" departSpeed="max"/>
    <trip id="bus45" depart="270.02" from="1105526087" to="-1055302850#1" departLane="best" type="bus_bus" departSpeed="max"/>
    <trip id="bus46" depart="276.03" from="4615407#4" to="-373389574#1" departLane="best" type="bus_bus"/>
    <trip id="bus47" depart="282.03" from="310357283#0" to="4614989#2" departLane="best" type="bus_bus" departSpeed="max"/>
    <trip id="bus48" depart="288.03" from="310357283#0" to="-48303485#3" departLane="best" type="bus_bus" departSpeed="max"/>
    <trip id="bus49" depart="294.03" from="309300321#0" to="-1152689710" departLane="best" type="bus_bus"/>
    <trip id="bus50" depart="300.03" from="-1055414262" to="-23294727#0" departLane="best" type="bus_bus"/>
    <trip id="bus51" depart="306.03" from="694626562" to="-671026861#1" departLane="best" type="bus_bus"/>
    <trip id="bus52" depart="312.03" from="671026861#1" to="-48303485#3" departLane="best" type="bus_bus"/>
    <trip id="bus53" depart="318.03" from="-1144528537#0" to="1133761630#1" departLane="best" type="bus_bus"/>
    <trip id="bus54" depart="324.03" from="246052428" to="1055409898#2" departLane="best" type="bus_bus"/>
    <trip id="bus55" depart="330.03" from="4615407#6" to="24914141#8" departLane="best" type="bus_bus"/>
    <trip id="bus56" depart="336.03" from="1105526087" to="24149429#0" departLane="best" type="bus_bus" departSpeed="max"/>
    <trip id="bus57" depart="342.03" from="173197451#5" to="1172748997#1" departLane="best" type="bus_bus"/>
    <trip id="bus58" depart="348.03" from="-1107953482" to="173197451#1" departLane="best" type="bus_bus" departSpeed="max"/>
    <trip id="bus59" depart="354.03" from="311357732#1" to="31619761" departLane="best" type="bus_bus"/>
    <trip id="bus60" depart="360.03" from="296599839#0" to="319339413#1" departLane="best" type="bus_bus"/>
    <trip id="bus61" depart="366.03" from="-4615406#1" to="4484427#0" departLane="best" type="bus_bus"/>
    <trip id="bus62" depart="372.03" from="4615406#1" to="24914141#8" departLane="best" type="bus_bus"/>
    <trip id="bus63" depart="378.03" from="4615407#3" to="31619761" departLane="best" type="bus_bus"/>
    <trip id="bus64" depart="384.04" from="1138696720#0" to="-4615407#4" departLane="best" type="bus_bus"/>
    <trip id="bus65" depart="390.04" from="147646826#0" to="-566764345" departLane="best" type="bus_bus" departSpeed="max"/>
    <trip id="bus66" depart="396.04" from="1105526087" to="4615466" departLane="best" type="bus_bus" departSpeed="max"/>
    <trip id="bus67" depart="402.04" from="1055302850#1" to="31619761" departLane="best" type="bus_bus"/>
    <trip id="bus68" depart="408.04" from="1133993572" to="-1408266928" departLane="best" type="bus_bus"/>
    <trip id="bus69" depart="414.04" from="-1083617992#1" to="24968394" departLane="best" type="bus_bus"/>
    <trip id="bus70" depart="420.04" from="-4615406#2" to="-1152640371#0" departLane="best" type="bus_bus"/>
    <trip id="bus71" depart="426.04" from="492609984#1" to="-24149429#1" departLane="best" type="bus_bus"/>
    <trip id="bus72" depart="432.04" from="-1144528534#0" to="319339413#2" departLane="best" type="bus_bus"/>
    <trip id="bus73" depart="438.04" from="4484427#1" to="333369841" departLane="best" type="bus_bus"/>
    <trip id="bus74" depart="444.04" from="147646826#0" to="333369841" departLane="best" type="bus_bus" departSpeed="max"/>
    <trip id="bus75" depart="450.04" from="1105526087" to="311690284" departLane="best" type="bus_bus" departSpeed="max"/>
    <trip id="bus76" depart="456.04" from="1133993557#0" to="24914141#8" departLane="best" type="bus_bus"/>
    <trip id="bus77" depart="462.04" from="-1055302850#1" to="4790801" departLane="best" type="bus_bus"/>
    <trip id="bus78" depart="468.04" from="-1107953482" to="311690284" departLane="best" type="bus_bus" departSpeed="max"/>
    <trip id="bus79" depart="474.04" from="1152689710" to="31619761" departLane="best" type="bus_bus" departSpeed="max"/>
    <trip id="bus80" depart="480.04" from="728838409" to="182620302#0" departLane="best" type="bus_bus" departSpeed="max"/>
    <trip id="bus81" depart="486.04" from="-1107953482" to="24968394" departLane="best" type="bus_bus" departSpeed="max"/>
    <trip id="bus82" depart="492.05" from="299397170" to="24914141#8" departLane="best" type="bus_bus"/>
    <trip id="bus83" depart="498.05" from="1152689710" to="1138696720#1" departLane="best" type="bus_bus" departSpeed="max"/>
    <trip id="bus84" depart="504.05" from="728838409" to="1055414211#0" departLane="best" type="bus_bus" departSpeed="max"/>
    <trip id="bus85" depart="510.05" from="147646826#0" to="24914141#8" departLane="best" type="bus_bus" departSpeed="max"/>
    <trip id="bus86" depart="516.05" from="182620302#0" to="4790801" departLane="best" type="bus_bus"/>
    <trip id="bus87" depart="522.05" from="147646826#1" to="4615497" departLane="best" type="bus_bus"/>
    <trip id="bus88" depart="528.05" from="329612532#1" to="23294727#0" departLane="best" type="bus_bus"/>
    <trip id="bus89" depart="534.05" from="492609984#1" to="909009143" departLane="best" type="bus_bus"/>
    <trip id="bus90" depart="540.05" from="188283090#0" to="4613299#2" departLane="best" type="bus_bus"/>
    <trip id="bus91" depart="546.05" from="728838409" to="29054704#1" departLane="best" type="bus_bus" departSpeed="max"/>
    <trip id="bus92" depart="552.05" from="325818854" to="1411145237#2" departLane="best" type="bus_bus"/>
    <trip id="bus93" depart="558.05" from="728838409" to="-4615404#1" departLane="best" type="bus_bus" departSpeed="max"/>
    <trip id="bus94" depart="564.05" from="4790810" to="1445880528" departLane="best" type="bus_bus" departSpeed="max"/>
    <trip id="bus95" depart="570.05" from="-4615497" to="319339413#4" departLane="best" type="bus_bus" departSpeed="max"/>
    <trip id="bus96" depart="576.05" from="-4615497" to="1055409898#1" departLane="best" type="bus_bus" departSpeed="max"/>
    <trip id="bus97" depart="582.05" from="301241681#3" to="-1096709562#0" departLane="best" type="bus_bus"/>
    <trip id="bus98" depart="588.05" from="-1107953482" to="24968394" departLane="best" type="bus_bus" departSpeed="max"/>
    <trip id="bus99" depart="594.05" from="-1096709563" to="319339413#4" departLane="best" type="bus_bus"/>
    <trip id="bus100" depart="600.06" from="4614987#1" to="24914141#8" departLane="best" type="bus_bus"/>
    <trip id="bus101" depart="606.06" from="-4615406#1" to="433126110#0" departLane="best" type="bus_bus"/>
    <trip id="bus102" depart="612.06" from="728838409" to="1040630268#3" departLane="best" type="bus_bus" departSpeed="max"/>
    <trip id="bus103" depart="618.06" from="-4615497" to="319339413#4" departLane="best" type="bus_bus" departSpeed="max"/>
    <trip id="bus104" depart="624.06" from="1105526087" to="24149429#0" departLane="best" type="bus_bus" departSpeed="max"/>
    <trip id="bus105" depart="630.06" from="-48303485#4" to="31619761" departLane="best" type="bus_bus"/>
    <trip id="bus106" depart="636.06" from="1083617992#1" to="319339413#4" departLane="best" type="bus_bus"/>
    <trip id="bus107" depart="642.06" from="1373064823#0" to="4615497" departLane="best" type="bus_bus" departSpeed="max"/>
    <trip id="bus108" depart="648.06" from="-1138696720#0" to="4615404#1" departLane="best" type="bus_bus"/>
    <trip id="bus109" depart="654.06" from="188283090#0" to="31619761" departLane="best" type="bus_bus"/>
    <trip id="bus110" depart="660.06" from="182620302#2" to="24968394" departLane="best" type="bus_bus"/>
    <trip id="bus111" depart="666.06" from="307098733" to="-4615404#0" departLane="best" type="bus_bus"/>
    <trip id="bus112" depart="672.06" from="-1107953482" to="31619761" departLane="best" type="bus_bus" departSpeed="max"/>
    <trip id="bus113" depart="678.06" from="-1414266086" to="4615407#5" departLane="best" type="bus_bus"/>
    <trip id="bus114" depart="684.06" from="-1040630268#1" to="4613299#3" departLane="best" type="bus_bus"/>
    <trip id="bus115" depart="690.06" from="-1055409898#2" to="319339413#4" departLane="best" type="bus_bus"/>
    <trip id="bus116" depart="696.06" from="-1107953482" to="24914141#8" departLane="best" type="bus_bus" departSpeed="max"/>
    <trip id="bus117" depart="702.06" from="-1107953482" to="-566764345" departLane="best" type="bus_bus" departSpeed="max"/>
    <trip id="bus118" depart="708.07" from="1107953480#1" to="-4613306#0" departLane="best" type="bus_bus"/>
    <trip id="bus119" depart="714.07" from="-1138696720#0" to="311690284" departLane="best" type="bus_bus"/>
    <trip id="bus120" depart="720.07" from="-1144528537#0" to="433126110#0" departLane="best" type="bus_bus"/>
    <trip id="bus121" depart="726.07" from="1083617992#2" to="31619761" departLane="best" type="bus_bus"/>
    <trip id="bus122" depart="732.07" from="311357732#1" to="24914141#8" departLane="best" type="bus_bus"/>
    <trip id="bus123" depart="738.07" from="4790810" to="333369841" departLane="best" type="bus_bus" departSpeed="max"/>
    <trip id="bus124" depart="744.07" from="1105526087" to="1096709562#1" departLane="best" type="bus_bus" departSpeed="max"/>
    <trip id="bus125" depart="750.07" from="1083617992#3" to="311690284" departLane="best" type="bus_bus"/>
    <trip id="bus126" depart="756.07" from="-182620302#0" to="24914141#8" departLane="best" type="bus_bus"/>
    <trip id="bus127" depart="762.07" from="1105526087" to="-909009143" departLane="best" type="bus_bus" departSpeed="max"/>
    <trip id="bus128" depart="768.07" from="1096709562#1" to="24914141#8" departLane="best" type="bus_bus"/>
    <trip id="bus129" depart="774.07" from="-1055302850#0" to="31619761" departLane="best" type="bus_bus"/>
    <trip id="bus130" depart="780.07" from="-1107953482" to="4613299#6" departLane="best" type="bus_bus" departSpeed="max"/>
    <trip id="bus131" depart="786.07" from="4790810" to="4613300#0" departLane="best" type="bus_bus" departSpeed="max"/>
    <trip id="bus132" depart="792.07" from="433126110#0" to="-4615404#0" departLane="best" type="bus_bus"/>
    <trip id="bus133" depart="798.07" from="310357283#0" to="-4614987#4" departLane="best" type="bus_bus" departSpeed="max"/>
    <trip id="bus134" depart="804.07" from="301241681#1" to="1410935549#2" departLane="best" type="bus_bus"/>
    <trip id="bus135" depart="810.07" from="296599839#1" to="31619761" departLane="best" type="bus_bus"/>
    <trip id="bus136" depart="816.08" from="147646826#0" to="4613300#1" departLane="best" type="bus_bus" departSpeed="max"/>
    <trip id="bus137" depart="822.08" from="-110464119#1" to="1445880528" departLane="best" type="bus_bus"/>
    <trip id="bus138" depart="828.08" from="-110464119#2" to="333369841" departLane="best" type="bus_bus"/>
    <trip id="bus139" depart="834.08" from="-1107953482" to="4613300#1" departLane="best" type="bus_bus" departSpeed="max"/>
    <trip id="bus140" depart="840.08" from="-173197451#1" to="-1107953489" departLane="best" type="bus_bus"/>
    <trip id="bus141" depart="846.08" from="4790810" to="4614987#4" departLane="best" type="bus_bus" departSpeed="max"/>
    <trip id="bus142" depart="852.08" from="1096709557#1" to="24914141#8" departLane="best" type="bus_bus"/>
    <trip id="bus143" depart="858.08" from="1095365675#1" to="319339413#4" departLane="best" type="bus_bus"/>
    <trip id="bus144" depart="864.08" from="310357283#0" to="296599839#0" departLane="best" type="bus_bus" departSpeed="max"/>
    <trip id="bus145" depart="870.08" from="1055414211#2" to="110464119#2" departLane="best" type="bus_bus"/>
    <trip id="bus146" depart="876.08" from="-1107953482" to="433126110#0" departLane="best" type="bus_bus" departSpeed="max"/>
    <trip id="bus147" depart="882.08" from="325818854" to="319339413#2" departLane="best" type="bus_bus"/>
    <trip id="bus148" depart="888.08" from="694626562" to="333369841" departLane="best" type="bus_bus"/>
    <trip id="bus149" depart="894.08" from="310357283#0" to="-1411145237#2" departLane="best" type="bus_bus" departSpeed="max"/>
    <trip id="bus150" depart="900.08" from="-4615406#1" to="24968394" departLane="best" type="bus_bus"/>
    <trip id="bus151" depart="906.08" from="-1144528534#0" to="433126110#1" departLane="best" type="bus_bus"/>
    <trip id="bus152" depart="912.08" from="299396267#1" to="-566764344#2" departLane="best" type="bus_bus"/>
    <trip id="bus153" depart="918.08" from="1105526087" to="4790801" departLane="best" type="bus_bus" departSpeed="max"/>
    <trip id="bus154" depart="924.09" from="-4614987#4" to="694626562" departLane="best" type="bus_bus"/>
    <trip id="bus155" depart="930.09" from="4790810" to="373389574#0" departLane="best" type="bus_bus" departSpeed="max"/>
    <trip id="bus156" depart="936.09" from="1105526112#2" to="-1040630268#2" departLane="best" type="bus_bus"/>
    <trip id="bus157" depart="942.09" from="-1055413927" to="173197451#1" departLane="best" type="bus_bus"/>
    <trip id="bus158" depart="948.09" from="728838409" to="-1134090050" departLane="best" type="bus_bus" departSpeed="max"/>
    <trip id="bus159" depart="954.09" from="1152689710" to="1445880528" departLane="best" type="bus_bus" departSpeed="max"/>
    <trip id="bus160" depart="960.09" from="147646826#0" to="333369841" departLane="best" type="bus_bus" departSpeed="max"/>
    <trip id="bus161" depart="966.09" from="-1107953482" to="319339413#4" departLane="best" type="bus_bus" departSpeed="max"/>
    <trip id="bus162" depart="972.09" from="112128418#2" to="1040630268#2" departLane="best" type="bus_bus"/>
    <trip id="bus163" depart="978.09" from="1055413927" to="319339413#4" departLane="best" type="bus_bus"/>
    <trip id="bus164" depart="984.09" from="-1408122424#0" to="1107944178" departLane="best" type="bus_bus"/>
    <trip id="bus165" depart="990.09" from="4615404#3" to="31619761" departLane="best" type="bus_bus"/>
    <trip id="bus166" depart="996.09" from="1152689710" to="319339413#4" departLane="best" type="bus_bus" departSpeed="max"/>
    <trip id="bus167" depart="1002.09" from="-671026861#1" to="24914141#8" departLane="best" type="bus_bus"/>
    <trip id="bus168" depart="1008.09" from="1055302850#1" to="-1095407470#1" departLane="best" type="bus_bus"/>
    <trip id="bus169" depart="1014.09" from="-1107953482" to="24968394" departLane="best" type="bus_bus" departSpeed="max"/>
    <trip id="bus170" depart="1020.09" from="1055414211#2" to="319339413#4" departLane="best" type="bus_bus"/>
    <trip id="bus171" depart="1026.09" from="-1107953482" to="319339413#4" departLane="best" type="bus_bus" departSpeed="max"/>
    <trip id="bus172" depart="1032.10" from="1373064823#0" to="24914141#8" departLane="best" type="bus_bus" departSpeed="max"/>
    <trip id="bus173" depart="1038.10" from="1083617992#4" to="31619761" departLane="best" type="bus_bus"/>
    <trip id="bus174" depart="1044.10" from="1373064823#0" to="187103791" departLane="best" type="bus_bus" departSpeed="max"/>
    <trip id="bus175" depart="1050.10" from="-4615406#1" to="-1323456348#2" departLane="best" type="bus_bus"/>
    <trip id="bus176" depart="1056.10" from="433126110#1" to="1083617994" departLane="best" type="bus_bus"/>
    <trip id="bus177" depart="1062.10" from="457031289" to="311357732#2" departLane="best" type="bus_bus"/>
    <trip id="bus178" depart="1068.10" from="4790810" to="24968394" departLane="best" type="bus_bus" departSpeed="max"/>
    <trip id="bus179" depart="1074.10" from="310357283#0" to="1445880528" departLane="best" type="bus_bus" departSpeed="max"/>
    <trip id="bus180" depart="1080.10" from="-137954786" to="-268002748#0" departLane="best" type="bus_bus"/>
    <trip id="bus181" depart="1086.10" from="-1411145237#2" to="319339413#4" departLane="best" type="bus_bus"/>
    <trip id="bus182" depart="1092.10" from="909009143" to="311690284" departLane="best" type="bus_bus"/>
    <trip id="bus183" depart="1098.10" from="1152689710" to="319339413#1" departLane="best" type="bus_bus" departSpeed="max"/>
    <trip id="bus184" depart="1104.10" from="728838409" to="24968394" departLane="best" type="bus_bus" departSpeed="max"/>
    <trip id="bus185" depart="1110.10" from="1105526087" to="4615497" departLane="best" type="bus_bus" departSpeed="max"/>
    <trip id="bus186" depart="1116.10" from="4615407#1" to="433126110#1" departLane="best" type="bus_bus"/>
    <trip id="bus187" depart="1122.10" from="-4615406#1" to="24968394" departLane="best" type="bus_bus"/>
    <trip id="bus188" depart="1128.10" from="1373064823#0" to="333369841" departLane="best" type="bus_bus" departSpeed="max"/>
    <trip id="bus189" depart="1134.10" from="-1083617992#2" to="-1096709563" departLane="best" type="bus_bus"/>
    <trip id="bus190" depart="1140.11" from="147646826#0" to="23294727#2" departLane="best" type="bus_bus" departSpeed="max"/>
    <trip id="bus191" depart="1146.11" from="-1107953482" to="-1105526111#1" departLane="best" type="bus_bus" departSpeed="max"/>
    <trip id="bus192" depart="1152.11" from="1040630268#1" to="1323456348#1" departLane="best" type="bus_bus"/>
    <trip id="bus193" depart="1158.11" from="-4615404#3" to="4613300#1" departLane="best" type="bus_bus"/>
    <trip id="bus194" depart="1164.11" from="-182620302#2" to="1095407470#0" departLane="best" type="bus_bus"/>
    <trip id="bus195" depart="1170.11" from="1105526087" to="4615403#1" departLane="best" type="bus_bus" departSpeed="max"/>
    <trip id="bus196" depart="1176.11" from="310357283#0" to="1096709561" departLane="best" type="bus_bus" departSpeed="max"/>
    <trip id="bus197" depart="1182.11" from="-19801644#2" to="671026861#1" departLane="best" type="bus_bus"/>
    <trip id="bus198" depart="1188.11" from="-566764344#1" to="333369841" departLane="best" type="bus_bus"/>
    <trip id="bus199" depart="1194.11" from="1373064823#0" to="311690284" departLane="best" type="bus_bus" departSpeed="max"/>
    <trip id="bus200" depart="1200.11" from="147646826#0" to="24914141#8" departLane="best" type="bus_bus" departSpeed="max"/>
    <trip id="bus201" depart="1206.11" from="4790810" to="4614987#4" departLane="best" type="bus_bus" departSpeed="max"/>
    <trip id="bus202" depart="1212.11" from="-373389574#0" to="307098733" departLane="best" type="bus_bus"/>
    <trip id="bus203" depart="1218.11" from="1020548406" to="1101331451" departLane="best" type="bus_bus"/>
    <trip id="bus204" depart="1224.11" from="-4615497" to="-1397609462#1" departLane="best" type="bus_bus" departSpeed="max"/>
    <trip id="bus205" depart="1230.11" from="728838409" to="333369841" departLane="best" type="bus_bus" departSpeed="max"/>
    <trip id="bus206" depart="1236.11" from="1105526087" to="-4615407#3" departLane="best" type="bus_bus" departSpeed="max"/>
    <trip id="bus207" depart="1242.11" from="1152689710" to="24968394" departLane="best" type="bus_bus" departSpeed="max"/>
    <trip id="bus208" depart="1248.12" from="4790810" to="-1414266086" departLane="best" type="bus_bus" departSpeed="max"/>
    <trip id="bus209" depart="1254.12" from="-1144528537#0" to="566764344#1" departLane="best" type="bus_bus"/>
    <trip id="bus210" depart="1260.12" from="-4615497" to="671026861#1" departLane="best" type="bus_bus" departSpeed="max"/>
    <trip id="bus211" depart="1266.12" from="1152689710" to="1410935549#2" departLane="best" type="bus_bus" departSpeed="max"/>
    <trip id="bus212" depart="1272.12" from="1133993572" to="-23294727#0" departLane="best" type="bus_bus"/>
    <trip id="bus213" depart="1278.12" from="112128418#4" to="-4615407#3" departLane="best" type="bus_bus"/>
    <trip id="bus214" depart="1284.12" from="-4615404#3" to="31619761" departLane="best" type="bus_bus"/>
    <trip id="bus215" depart="1290.12" from="1152689710" to="-1323456348#3" departLane="best" type="bus_bus" departSpeed="max"/>
    <trip id="bus216" depart="1296.12" from="310357283#0" to="1144528534#1" departLane="best" type="bus_bus" departSpeed="max"/>
    <trip id="bus217" depart="1302.12" from="1096709562#1" to="333369841" departLane="best" type="bus_bus"/>
    <trip id="bus218" depart="1308.12" from="-1096709562#0" to="109819340" departLane="best" type="bus_bus"/>
    <trip id="bus219" depart="1314.12" from="-1107953482" to="694626562" departLane="best" type="bus_bus" departSpeed="max"/>
    <trip id="bus220" depart="1320.12" from="4790833" to="-1134090050" departLane="best" type="bus_bus"/>
    <trip id="bus221" depart="1326.12" from="4614987#1" to="4615497" departLane="best" type="bus_bus"/>
    <trip id="bus222" depart="1332.12" from="173197451#2" to="1101331451" departLane="best" type="bus_bus"/>
    <trip id="bus223" depart="1338.12" from="1101331451" to="-4614987#2" departLane="best" type="bus_bus"/>
    <trip id="bus224" depart="1344.12" from="276701303#1" to="1083617994" departLane="best" type="bus_bus"/>
    <trip id="bus225" depart="1350.12" from="-1107953479" to="4790801" departLane="best" type="bus_bus"/>
    <trip id="bus226" depart="1356.13" from="1095365675#1" to="31619761" departLane="best" type="bus_bus"/>
    <trip id="bus227" depart="1362.13" from="147646826#0" to="4615497" departLane="best" type="bus_bus" departSpeed="max"/>
    <trip id="bus228" depart="1368.13" from="-1055409898#2" to="4790801" departLane="best" type="bus_bus"/>
    <trip id="bus229" depart="1374.13" from="671026861#1" to="-1323456348#4" departLane="best" type="bus_bus"/>
    <trip id="bus230" depart="1380.13" from="909009143" to="1397609462#1" departLane="best" type="bus_bus"/>
    <trip id="bus231" depart="1386.13" from="-4615404#0" to="24914141#8" departLane="best" type="bus_bus"/>
    <trip id="bus232" depart="1392.13" from="-4615407#5" to="4790801" departLane="best" type="bus_bus"/>
    <trip id="bus233" depart="1398.13" from="-24149429#0" to="311690284" departLane="best" type="bus_bus"/>
    <trip id="bus234" depart="1404.13" from="1152689710" to="24968394" departLane="best" type="bus_bus" departSpeed="max"/>
    <trip id="bus235" depart="1410.13" from="-1105526111#1" to="-1083617993#0" departLane="best" type="bus_bus"/>
    <trip id="bus236" depart="1416.13" from="1083617994" to="24914141#8" departLane="best" type="bus_bus"/>
    <trip id="bus237" depart="1422.13" from="-1055304388" to="187103791" departLane="best" type="bus_bus"/>
    <trip id="bus238" depart="1428.13" from="310357283#0" to="-48303485#4" departLane="best" type="bus_bus" departSpeed="max"/>
    <trip id="bus239" depart="1434.13" from="-110464119#1" to="-1055302850#1" departLane="best" type="bus_bus"/>
    <trip id="bus240" depart="1440.13" from="137954786" to="31619761" departLane="best" type="bus_bus"/>
    <trip id="bus241" depart="1446.13" from="-4615497" to="671026861#2" departLane="best" type="bus_bus" departSpeed="max"/>
    <trip id="bus242" depart="1452.13" from="-1107953482" to="24914141#8" departLane="best" type="bus_bus" departSpeed="max"/>
    <trip id="bus243" depart="1458.13" from="-671026861#2" to="1104460751#1" departLane="best" type="bus_bus"/>
    <trip id="bus244" depart="1464.14" from="-1083617992#1" to="1101404246#1" departLane="best" type="bus_bus"/>
    <trip id="bus245" depart="1470.14" from="-566764344#2" to="1410935549#2" departLane="best" type="bus_bus"/>
    <trip id="bus246" depart="1476.14" from="-1107953482" to="1133761630#1" departLane="best" type="bus_bus" departSpeed="max"/>
    <trip id="bus247" depart="1482.14" from="311357732#1" to="319339413#4" departLane="best" type="bus_bus"/>