<?xml version="1.0" encoding="UTF-8"?>

<!-- generated on 2025-12-24 13:56:56.940990 by osmWebWizard.py v1_23_1+0000-676720d13f6
<configuration>
    <net-file value="C:\Users\Gagana\Sumo\2025-12-24-13-56-05\osm.net.xml.gz"/>
    <output-trip-file value="C:\Users\Gagana\Sumo\2025-12-24-13-56-05\osm.truck.trips.xml"/>
    <route-file value="C:\Users\Gagana\Sumo\2025-12-24-13-56-05\osm.truck.rou.xml"/>
    <prefix value="truck"/>
    <trip-attributes value="departLane=&quot;best&quot;"/>
    <fringe-start-attributes value="departSpeed=&quot;max&quot;"/>
    <vehicle-class value="truck"/>
    <fringe-factor value="25"/>
    <edge-permission value="truck"/>
    <via-edge-types value="highway.motorway,highway.motorway_link,highway.trunk_link,highway.primary_link,highway.secondary_link,highway.tertiary_link"/>
    <min-distance value="600.0"/>
    <min-distance.fringe value="10.0"/>
    <remove-loops value="True"/>
    <validate value="True"/>
    <insertion-density value="30.0"/>
</configuration>
-->

<routes xmlns:xsi="http://www.w3.org/2001/XMLSchema-instance" xsi:noNamespaceSchemaLocation="http://sumo.dlr.de/xsd/routes_file.xsd">
    <!-- normal truck type -->
    <vType id="truck_truck" vClass="truck"/>

    <!-- stopped truck type -->
    <vType id="stopped_hazard" vClass="truck" color="red" guiShape="truck"/>

    <trip id="truck0" depart="0.00" from="-1083617992#4" to="-373389574#1" departLane="best" type="stopped_hazard">
    <stop lane="890801131#1_0" startPos="50" endPos="60" duration="3600"/>
    </trip>

    <trip id="truck1" depart="6.01" from="147646826#0" to="24914109" departLane="best" type="truck_truck" departSpeed="max"/>
    <trip id="truck2" depart="12.01" from="310357283#0" to="-1055302850#0" departLane="best" type="truck_truck" departSpeed="max"/>
    <trip id="truck3" depart="18.02" from="-1138696720#0" to="-1152689710" departLane="best" type="truck_truck"/>
    <trip id="truck4" depart="24.03" from="1096709562#1" to="24914141#8" departLane="best" type="truck_truck"/>
    <trip id="truck5" depart="30.03" from="1373064823#0" to="311690284" departLane="best" type="stopped_hazard" departSpeed="max">
    <stop lane="295445243_0" startPos="50" endPos="60" duration="360"/>
    </trip>
    <trip id="truck6" depart="36.04" from="4615404#0" to="1101404262#1" departLane="best" type="truck_truck"/>
    <trip id="truck7" depart="42.05" from="1373064823#0" to="4615497" departLane="best" type="truck_truck" departSpeed="max"/>
    <trip id="truck8" depart="48.05" from="-1134090050" to="-1105526111#1" departLane="best" type="truck_truck"/>
    <trip id="truck9" depart="54.06" from="310357283#0" to="1144528529#1" departLane="best" type="truck_truck" departSpeed="max"/>
    <trip id="truck10" depart="60.07" from="-1055409898#1" to="31619761" departLane="best" type="truck_truck"/>
    <trip id="truck11" depart="66.07" from="-137954786" to="1323456348#1" departLane="best" type="stopped_hazard">
    <stop lane="311357732#2_2" startPos="50" endPos="60" duration="3600"/>
    </trip>
    <trip id="truck12" depart="72.08" from="1134090050" to="4790801" departLane="best" type="truck_truck"/>
    <trip id="truck13" depart="78.09" from="4615404#1" to="4790801" departLane="best" type="truck_truck"/>
    <trip id="truck14" depart="84.09" from="-1107953489" to="187103791" departLane="best" type="truck_truck"/>
    <trip id="truck15" depart="90.10" from="-1107953482" to="319339413#4" departLane="best" type="truck_truck" departSpeed="max"/>
    <trip id="truck16" depart="96.10" from="728838409" to="298473729" departLane="best" type="truck_truck" departSpeed="max"/>
    <trip id="truck17" depart="102.11" from="1105526087" to="1055414211#2" departLane="best" type="truck_truck" departSpeed="max"/>
    <trip id="truck18" depart="108.12" from="1105526087" to="-1144528529#1" departLane="best" type="truck_truck" departSpeed="max"/>
    <trip id="truck19" depart="114.12" from="1096709562#1" to="566764344#1" departLane="best" type="truck_truck"/>
    <trip id="truck20" depart="120.13" from="-1107953482" to="24914141#8" departLane="best" type="truck_truck" departSpeed="max"/>
    <trip id="truck21" depart="126.14" from="1144528537#1" to="4613299#1" departLane="best" type="truck_truck"/>
    <trip id="truck22" depart="132.14" from="-1107953482" to="-23294727#0" departLane="best" type="truck_truck" departSpeed="max"/>
    <trip id="truck23" depart="138.15" from="-1107953482" to="1411131710#1" departLane="best" type="truck_truck" departSpeed="max"/>
    <trip id="truck24" depart="144.16" from="-1107953482" to="-4613306#0" departLane="best" type="truck_truck" departSpeed="max"/>
    <trip id="truck25" depart="150.16" from="325818854" to="311690284" departLane="best" type="truck_truck"/>
    <trip id="truck26" depart="156.17" from="310357283#0" to="1096709540" departLane="best" type="truck_truck" departSpeed="max"/>
    <trip id="truck27" depart="162.18" from="147646826#0" to="1020548406" departLane="best" type="truck_truck" departSpeed="max"/>
    <trip id="truck28" depart="168.18" from="1105526087" to="1055414211#1" departLane="best" type="truck_truck" departSpeed="max"/>
    <trip id="truck29" depart="174.19" from="-1040630268#2" to="319339413#4" departLane="best" type="truck_truck"/>
    <trip id="truck30" depart="180.20" from="147646826#0" to="1006033769" departLane="best" type="truck_truck" departSpeed="max"/>
    <trip id="truck31" depart="186.20" from="1105526087" to="-1055304388" departLane="best" type="truck_truck" departSpeed="max"/>
    <trip id="truck32" depart="192.21" from="325818854" to="24914141#8" departLane="best" type="truck_truck"/>
    <trip id="truck33" depart="198.22" from="310357283#0" to="4615404#3" departLane="best" type="truck_truck" departSpeed="max"/>
    <trip id="truck34" depart="204.22" from="-1083617992#3" to="31619761" departLane="best" type="truck_truck"/>
    <trip id="truck35" depart="210.23" from="310357283#0" to="1040630268#2" departLane="best" type="truck_truck" departSpeed="max"/>
    <trip id="truck36" depart="216.24" from="-4614989#1" to="333369841" departLane="best" type="truck_truck"/>
    <trip id="truck37" depart="222.24" from="310357283#0" to="-4615404#2" departLane="best" type="truck_truck" departSpeed="max"/>
    <trip id="truck38" depart="228.25" from="728838409" to="1055414262" departLane="best" type="truck_truck" departSpeed="max"/>
    <trip id="truck39" depart="234.26" from="728838409" to="-182620302#2" departLane="best" type="truck_truck" departSpeed="max"/>
    <trip id="truck40" depart="240.26" from="728838409" to="1040630268#1" departLane="best" type="truck_truck" departSpeed="max"/>
    <trip id="truck41" depart="246.27" from="4790810" to="24968394" departLane="best" type="truck_truck" departSpeed="max"/>
    <trip id="truck42" depart="252.28" from="1040630268#1" to="24914141#2" departLane="best" type="truck_truck"/>
    <trip id="truck43" depart="258.28" from="-1006033769" to="1083617994" departLane="best" type="truck_truck"/>
    <trip id="truck44" depart="264.29" from="310357283#0" to="-1414266086" departLane="best" type="truck_truck" departSpeed="max"/>
    <trip id="truck45" depart="270.30" from="182620302#2" to="566764344#2" departLane="best" type="truck_truck"/>
    <trip id="truck46" depart="276.30" from="4615407#6" to="24968394" departLane="best" type="truck_truck"/>
    <trip id="truck47" depart="282.31" from="-4615406#1" to="311690284" departLane="best" type="truck_truck"/>
    <trip id="truck48" depart="288.31" from="1105526087" to="24149429#1" departLane="best" type="truck_truck" departSpeed="max"/>
    <trip id="truck49" depart="294.32" from="1105526087" to="4615497" departLane="best" type="truck_truck" departSpeed="max"/>
    <trip id="truck50" depart="300.33" from="1373064823#0" to="311690284" departLane="best" type="truck_truck" departSpeed="max"/>
    <trip id="truck51" depart="306.33" from="1055414211#2" to="319339413#0" departLane="best" type="truck_truck"/>
    <trip id="truck52" depart="312.34" from="296122995#1" to="333369841" departLane="best" type="truck_truck"/>
    <trip id="truck53" depart="318.35" from="-1055414262" to="23294727#2" departLane="best" type="truck_truck"/>
    <trip id="truck54" depart="324.35" from="147646826#0" to="319339413#4" departLane="best" type="truck_truck" departSpeed="max"/>
    <trip id="truck55" depart="330.36" from="147646826#0" to="319339413#1" departLane="best" type="truck_truck" departSpeed="max"/>
    <trip id="truck56" depart="336.37" from="457031289" to="333369841" departLane="best" type="truck_truck"/>
    <trip id="truck57" depart="342.37" from="147646826#0" to="333369841" departLane="best" type="truck_truck" departSpeed="max"/>
    <trip id="truck58" depart="348.38" from="1107944178" to="31619761" departLane="best" type="truck_truck"/>
    <trip id="truck59" depart="354.39" from="-1055304388" to="4790801" departLane="best" type="truck_truck"/>
    <trip id="truck60" depart="360.39" from="-1107953489" to="31619761" departLane="best" type="truck_truck"/>
    <trip id="truck61" depart="366.40" from="4614989#1" to="24914141#8" departLane="best" type="truck_truck"/>
    <trip id="truck62" depart="372.41" from="-1107953482" to="28679067#1" departLane="best" type="truck_truck" departSpeed="max"/>
    <trip id="truck63" depart="378.41" from="299397170" to="24968394" departLane="best" type="truck_truck"/>
    <trip id="truck64" depart="384.42" from="310357283#0" to="-4615404#1" departLane="best" type="truck_truck" departSpeed="max"/>
    <trip id="truck65" depart="390.43" from="728838409" to="1096709571#1" departLane="best" type="truck_truck" departSpeed="max"/>
    <trip id="truck66" depart="396.43" from="-4615406#1" to="311690284" departLane="best" type="truck_truck"/>
    <trip id="truck67" depart="402.44" from="310357283#0" to="24968394" departLane="best" type="truck_truck" departSpeed="max"/>
    <trip id="truck68" depart="408.45" from="147646826#0" to="4615497" departLane="best" type="truck_truck" departSpeed="max"/>
    <trip id="truck69" depart="414.45" from="-1134090050" to="4790801" departLane="best" type="truck_truck"/>
    <trip id="truck70" depart="420.46" from="329612224" to="24914141#8" departLane="best" type="truck_truck"/>
    <trip id="truck71" depart="426.47" from="566764344#2" to="909009143" departLane="best" type="truck_truck"/>
    <trip id="truck72" depart="432.47" from="-1101331451" to="319339413#2" departLane="best" type="truck_truck"/>
    <trip id="truck73" depart="438.48" from="1107953489" to="311690284" departLane="best" type="truck_truck"/>
    <trip id="truck74" depart="444.49" from="1344278031#1" to="-1152689710" departLane="best" type="truck_truck"/>
    <trip id="truck75" depart="450.49" from="4615404#2" to="4613300#3" departLane="best" type="truck_truck"/>
    <trip id="truck76" depart="456.50" from="1105526087" to="4790801" departLane="best" type="truck_truck" departSpeed="max"/>
    <trip id="truck77" depart="462.50" from="173197451#6" to="333369841" departLane="best" type="truck_truck"/>
    <trip id="truck78" depart="468.51" from="147646826#0" to="4613299#0" departLane="best" type="truck_truck" departSpeed="max"/>
    <trip id="truck79" depart="474.52" from="4790810" to="311357732#2" departLane="best" type="truck_truck" departSpeed="max"/>
    <trip id="truck80" depart="480.52" from="1055409898#2" to="24914141#8" departLane="best" type="truck_truck"/>
    <trip id="truck81" depart="486.53" from="1373064823#0" to="24914141#8" departLane="best" type="truck_truck" departSpeed="max"/>
    <trip id="truck82" depart="492.54" from="-1107953482" to="24968394" departLane="best" type="truck_truck" departSpeed="max"/>
    <trip id="truck83" depart="498.54" from="194995004" to="31619761" departLane="best" type="truck_truck"/>
    <trip id="truck84" depart="504.55" from="173197451#1" to="333369841" departLane="best" type="truck_truck"/>
    <trip id="truck85" depart="510.56" from="147646826#0" to="4615497" departLane="best" type="truck_truck" departSpeed="max"/>
    <trip id="truck86" depart="516.56" from="111251391#0" to="24914141#8" departLane="best" type="truck_truck"/>
    <trip id="truck87" depart="522.57" from="728838409" to="333369841" departLane="best" type="truck_truck" departSpeed="max"/>
    <trip id="truck88" depart="528.58" from="1095365675#2" to="319339413#4" departLane="best" type="truck_truck"/>
    <trip id="truck89" depart="534.58" from="1373064823#0" to="4615497" departLane="best" type="truck_truck" departSpeed="max"/>
    <trip id="truck90" depart="540.59" from="1040630268#1" to="1133761630#0" departLane="best" type="truck_truck"/>
    <trip id="truck91" depart="546.60" from="1105526087" to="-1152689710" departLane="best" type="truck_truck" departSpeed="max"/>
    <trip id="truck92" depart="552.60" from="-1144528536" to="311690284" departLane="best" type="truck_truck"/>
    <trip id="truck93" depart="558.61" from="4484427#0" to="1410935549#1" departLane="best" type="truck_truck"/>
    <trip id="truck94" depart="564.62" from="310357283#0" to="-48303485#3" departLane="best" type="truck_truck" departSpeed="max"/>
    <trip id="truck95" depart="570.62" from="-1411145237#2" to="24914141#8" departLane="best" type="truck_truck"/>
    <trip id="truck96" depart="576.63" from="-1107953482" to="319339413#4" departLane="best" type="truck_truck" departSpeed="max"/>
    <trip id="truck97" depart="582.64" from="-1040630268#1" to="4613299#6" departLane="best" type="truck_truck"/>
    <trip id="truck98" depart="588.64" from="-1055414211#0" to="319339413#4" departLane="best" type="truck_truck"/>
    <trip id="truck99" depart="594.65" from="728838409" to="-1144528535#0" departLane="best" type="truck_truck" departSpeed="max"/>
    <trip id="truck100" depart="600.66" from="-1107953482" to="24968394" departLane="best" type="truck_truck" departSpeed="max"/>
    <trip id="truck101" depart="606.66" from="147646826#0" to="24914141#2" departLane="best" type="truck_truck" departSpeed="max"/>
    <trip id="truck102" depart="612.67" from="147646826#0" to="319339413#4" departLane="best" type="truck_truck" departSpeed="max"/>
    <trip id="truck103" depart="618.68" from="1105526087" to="-1152689710" departLane="best" type="truck_truck" departSpeed="max"/>
    <trip id="truck104" depart="624.68" from="-1144528534#0" to="31619761" departLane="best" type="truck_truck"/>
    <trip id="truck105" depart="630.69" from="1373064823#0" to="24914141#8" departLane="best" type="truck_truck" departSpeed="max"/>
    <trip id="truck106" depart="636.69" from="1373064823#0" to="-4613306#0" departLane="best" type="truck_truck" departSpeed="max"/>
    <trip id="truck107" depart="642.70" from="1373064823#0" to="333369841" departLane="best" type="truck_truck" departSpeed="max"/>
    <trip id="truck108" depart="648.71" from="310357283#0" to="24968394" departLane="best" type="truck_truck" departSpeed="max"/>
    <trip id="truck109" depart="654.71" from="4790810" to="333369841" departLane="best" type="truck_truck" departSpeed="max"/>
    <trip id="truck110" depart="660.72" from="4614987#6" to="24914141#8" departLane="best" type="truck_truck"/>
    <trip id="truck111" depart="666.73" from="304162878#1" to="24914141#8" departLane="best" type="truck_truck"/>
    <trip id="truck112" depart="672.73" from="-1107953482" to="-1133761630#0" departLane="best" type="truck_truck" departSpeed="max"/>
    <trip id="truck113" depart="678.74" from="112128418#2" to="1055413927" departLane="best" type="truck_truck"/>
    <trip id="truck114" depart="684.75" from="182620302#2" to="-110464119#2" departLane="best" type="truck_truck"/>
    <trip id="truck115" depart="690.75" from="-1055302850#1" to="31619761" departLane="best" type="truck_truck"/>
    <trip id="truck116" depart="696.76" from="-1107953482" to="4613300#2" departLane="best" type="truck_truck" departSpeed="max"/>
    <trip id="truck117" depart="702.77" from="1373064823#0" to="24914141#8" departLane="best" type="truck_truck" departSpeed="max"/>
    <trip id="truck118" depart="708.77" from="147646826#0" to="333369841" departLane="best" type="truck_truck" departSpeed="max"/>
    <trip id="truck119" depart="714.78" from="1105526087" to="1101404055#1" departLane="best" type="truck_truck" departSpeed="max"/>
    <trip id="truck120" depart="720.79" from="246052428" to="333369841" departLane="best" type="truck_truck"/>
    <trip id="truck121" depart="726.79" from="310357283#0" to="-4615407#3" departLane="best" type="truck_truck" departSpeed="max"/>
    <trip id="truck122" depart="732.80" from="147646826#0" to="4613300#3" departLane="best" type="truck_truck" departSpeed="max"/>
    <trip id="truck123" depart="738.81" from="-1107953482" to="1344278031#1" departLane="best" type="truck_truck" departSpeed="max"/>
    <trip id="truck124" depart="744.81" from="-1107953482" to="4613300#3" departLane="best" type="truck_truck" departSpeed="max"/>
    <trip id="truck125" depart="750.82" from="1055302850#1" to="311690284" departLane="best" type="truck_truck"/>
    <trip id="truck126" depart="756.83" from="310357283#0" to="297310646#1" departLane="best" type="truck_truck" departSpeed="max"/>
    <trip id="truck127" depart="762.83" from="1096709561" to="319339413#4" departLane="best" type="truck_truck"/>
    <trip id="truck128" depart="768.84" from="-1107953482" to="433126110#0" departLane="best" type="truck_truck" departSpeed="max"/>
    <trip id="truck129" depart="774.85" from="-1144528537#0" to="319339413#4" departLane="best" type="truck_truck"/>
    <trip id="truck130" depart="780.85" from="310357283#0" to="1445880528" departLane="best" type="truck_truck" departSpeed="max"/>
    <trip id="truck131" depart="786.86" from="329612224" to="112128418#2" departLane="best" type="truck_truck"/>
    <trip id="truck132" depart="792.87" from="728838409" to="333369841" departLane="best" type="truck_truck" departSpeed="max"/>
    <trip id="truck133" depart="798.87" from="4614989#2" to="24914141#8" departLane="best" type="truck_truck"/>
    <trip id="truck134" depart="804.88" from="1107953480#1" to="4790801" departLane="best" type="truck_truck"/>
    <trip id="truck135" depart="810.89" from="-4615407#1" to="694626562" departLane="best" type="truck_truck"/>
    <trip id="truck136" depart="816.89" from="4790822" to="333369841" departLane="best" type="truck_truck"/>
    <trip id="truck137" depart="822.90" from="147646826#0" to="319339413#4" departLane="best" type="truck_truck" departSpeed="max"/>
    <trip id="truck138" depart="828.90" from="-173197451#5" to="1083617994" departLane="best" type="truck_truck"/>
    <trip id="truck139" depart="834.91" from="329612224" to="24914141#4" departLane="best" type="truck_truck"/>
    <trip id="truck140" depart="840.92" from="4790810" to="24968394" departLane="best" type="truck_truck" departSpeed="max"/>
    <trip id="truck141" depart="846.92" from="147646826#0" to="492609984#1" departLane="best" type="truck_truck" departSpeed="max"/>
    <trip id="truck142" depart="852.93" from="147646826#0" to="333369841" departLane="best" type="truck_truck" departSpeed="max"/>
    <trip id="truck143" depart="858.94" from="-1107953482" to="319339413#4" departLane="best" type="truck_truck" departSpeed="max"/>
    <trip id="truck144" depart="864.94" from="1138696720#1" to="1095371161" departLane="best" type="truck_truck"/>
    <trip id="truck145" depart="870.95" from="1083617992#3" to="319339413#4" departLane="best" type="truck_truck"/>
    <trip id="truck146" depart="876.96" from="4615407#5" to="31619761" departLane="best" type="truck_truck"/>
    <trip id="truck147" depart="882.96" from="1105526087" to="311690284" departLane="best" type="truck_truck" departSpeed="max"/>
    <trip id="truck148" depart="888.97" from="-1107953482" to="295445243" departLane="best" type="truck_truck" departSpeed="max"/>
    <trip id="truck149" depart="894.98" from="-182620302#2" to="24968394" departLane="best" type="truck_truck"/>
    <trip id="truck150" depart="900.98" from="-1107953482" to="319339413#4" departLane="best" type="truck_truck" departSpeed="max"/>
    <trip id="truck151" depart="906.99" from="1096709540" to="319339413#4" departLane="best" type="truck_truck"/>
    <trip id="truck152" depart="913.00" from="1105526087" to="298473729" departLane="best" type="truck_truck" departSpeed="max"/>
    <trip id="truck153" depart="919.00" from="-111251391#1" to="311690284" departLane="best" type="truck_truck"/>
    <trip id="truck154" depart="925.01" from="-1083617992#4" to="24914141#8" departLane="best" type="truck_truck"/>
    <trip id="truck155" depart="931.02" from="1095407470#1" to="333369841" departLane="best" type="truck_truck"/>
    <trip id="truck156" depart="937.02" from="909009143" to="31619761" departLane="best" type="truck_truck"/>
    <trip id="truck157" depart="943.03" from="1133993572" to="311690284" departLane="best" type="truck_truck"/>
    <trip id="truck158" depart="949.04" from="1055409898#2" to="4790801" departLane="best" type="truck_truck"/>
    <trip id="truck159" depart="955.04" from="1373064823#0" to="333369841" departLane="best" type="truck_truck" departSpeed="max"/>
    <trip id="truck160" depart="961.05" from="-1095365675#0" to="-110464119#2" departLane="best" type="truck_truck"/>
    <trip id="truck161" depart="967.06" from="147646826#0" to="24914141#8" departLane="best" type="truck_truck" departSpeed="max"/>
    <trip id="truck162" depart="973.06" from="147646826#0" to="319339413#4" departLane="best" type="truck_truck" departSpeed="max"/>
    <trip id="truck163" depart="979.07" from="-671026861#0" to="4790801" departLane="best" type="truck_truck"/>
    <trip id="truck164" depart="985.08" from="728838409" to="-4614987#0" departLane="best" type="truck_truck" departSpeed="max"/>
    <trip id="truck165" depart="991.08" from="1373064823#0" to="-29054704#1" departLane="best" type="truck_truck" departSpeed="max"/>
    <trip id="truck166" depart="997.09" from="1373064823#0" to="-1152689710" departLane="best" type="truck_truck" departSpeed="max"/>
    <trip id="truck167" depart="1003.09" from="1144528537#0" to="-110464119#2" departLane="best" type="truck_truck"/>
    <trip id="truck168" depart="1009.10" from="28679067#1" to="1096709540" departLane="best" type="truck_truck"/>
    <trip id="truck169" depart="1015.11" from="1020548406" to="333369841" departLane="best" type="truck_truck"/>
    <trip id="truck170" depart="1021.11" from="307098733" to="319339413#4" departLane="best" type="truck_truck"/>
    <trip id="truck171" depart="1027.12" from="552963268" to="-1323456348#5" departLane="best" type="truck_truck"/>
    <trip id="truck172" depart="1033.13" from="-24149429#0" to="311690284" departLane="best" type="truck_truck"/>
    <trip id="truck173" depart="1039.13" from="147646826#0" to="311690284" departLane="best" type="truck_truck" departSpeed="max"/>
    <trip id="truck174" depart="1045.14" from="728838409" to="333369841" departLane="best" type="truck_truck" departSpeed="max"/>
    <trip id="truck175" depart="1051.15" from="671026861#1" to="333369841" departLane="best" type="truck_truck"/>
    <trip id="truck176" depart="1057.15" from="112128418#2" to="-671026861#2" departLane="best" type="truck_truck"/>
    <trip id="truck177" depart="1063.16" from="1445880528" to="24914141#8" departLane="best" type="truck_truck"/>
    <trip id="truck178" depart="1069.17" from="301167584#0" to="-1040630268#3" departLane="best" type="truck_truck"/>
    <trip id="truck179" depart="1075.17" from="1105526087" to="4790801" departLane="best" type="truck_truck" departSpeed="max"/>
    <trip id="truck180" depart="1081.18" from="4615404#1" to="173197451#5" departLane="best" type="truck_truck"/>
    <trip id="truck181" depart="1087.19" from="4615406#1" to="-173197451#6" departLane="best" type="truck_truck"/>
    <trip id="truck182" depart="1093.19" from="1105526087" to="19801644#1" departLane="best" type="truck_truck" departSpeed="max"/>
    <trip id="truck183" depart="1099.20" from="4790810" to="4615404#0" departLane="best" type="truck_truck" departSpeed="max"/>
    <trip id="truck184" depart="1105.21" from="-1055304388" to="24914141#8" departLane="best" type="truck_truck"/>
    <trip id="truck185" depart="1111.21" from="1040630268#1" to="31619761" departLane="best" type="truck_truck"/>
    <trip id="truck186" depart="1117.22" from="293931248" to="24968394" departLane="best" type="truck_truck"/>
    <trip id="truck187" depart="1123.23" from="-1107953482" to="24914141#8" departLane="best" type="truck_truck" departSpeed="max"/>
    <trip id="truck188" depart="1129.23" from="-1107953482" to="24914141#2" departLane="best" type="truck_truck" departSpeed="max"/>
    <trip id="truck189" depart="1135.24" from="310357283#0" to="1410132675#1" departLane="best" type="truck_truck" departSpeed="max"/>
    <trip id="truck190" depart="1141.25" from="1105526087" to="333369841" departLane="best" type="truck_truck" departSpeed="max"/>
    <trip id="truck191" depart="1147.25" from="-1107953482" to="694626562" departLane="best" type="truck_truck" departSpeed="max"/>
    <trip id="truck192" depart="1153.26" from="4790838#1" to="-1152689710" departLane="best" type="truck_truck"/>
    <trip id="truck193" depart="1159.27" from="4614987#6" to="4615497" departLane="best" type="truck_truck"/>
    <trip id="truck194" depart="1165.27" from="1096709557#1" to="311690284" departLane="best" type="truck_truck"/>
    <trip id="truck195" depart="1171.28" from="188283090#0" to="24914109" departLane="best" type="truck_truck"/>
    <trip id="truck196" depart="1177.29" from="24149429#0" to="-1397609462#1" departLane="best" type="truck_truck"/>
    <trip id="truck197" depart="1183.29" from="310357283#0" to="1138696720#0" departLane="best" type="truck_truck" departSpeed="max"/>
    <trip id="truck198" depart="1189.30" from="-1055414211#0" to="-4613299#6" departLane="best" type="truck_truck"/>
    <trip id="truck199" depart="1195.30" from="-1107953482" to="31619761" departLane="best" type="truck_truck" departSpeed="max"/>
    <trip id="truck200" depart="1201.31" from="1105526087" to="-4615407#0" departLane="best" type="truck_truck" departSpeed="max"/>
    <trip id="truck201" depart="1207.32" from="-671026861#0" to="333369841" departLane="best" type="truck_truck"/>
    <trip id="truck202" depart="1213.32" from="-1107953482" to="4790801" departLane="best" type="truck_truck" departSpeed="max"/>
    <trip id="truck203" depart="1219.33" from="4615404#2" to="4615497" departLane="best" type="truck_truck"/>
    <trip id="truck204" depart="1225.34" from="147646826#0" to="4615497" departLane="best" type="truck_truck" departSpeed="max"/>
    <trip id="truck205" depart="1231.34" from="24149429#0" to="-268002748#0" departLane="best" type="truck_truck"/>
    <trip id="truck206" depart="1237.35" from="24149429#0" to="24914141#8" departLane="best" type="truck_truck"/>
    <trip id="truck207" depart="1243.36" from="909009143" to="173197451#6" departLane="best" type="truck_truck"/>
    <trip id="truck208" depart="1249.36" from="1083617992#4" to="1006033769" departLane="best" type="truck_truck"/>
    <trip id="truck209" depart="1255.37" from="-1144528535#0" to="492609984#1" departLane="best" type="truck_truck"/>
    <trip id="truck210" depart="1261.38" from="-1107953482" to="-1095407470#0" departLane="best" type="truck_truck" departSpeed="max"/>
    <trip id="truck211" depart="1267.38" from="187091991" to="319339413#4" departLane="best" type="truck_truck"/>
    <trip id="truck212" depart="1273.39" from="-4615406#1" to="311690284" departLane="best" type="truck_truck"/>
    <trip id="truck213" depart="1279.40" from="182620302#2" to="24968394" departLane="best" type="truck_truck"/>
    <trip id="truck214" depart="1285.40" from="-1055302850#0" to="24914141#8" departLane="best" type="truck_truck"/>
    <trip id="truck215" depart="1291.41" from="188283090#0" to="333369841" departLane="best" type="truck_truck"/>
    <trip id="truck216" depart="1297.42" from="310357283#0" to="1040630268#3" departLane="best" type="truck_truck" departSpeed="max"/>
    <trip id="truck217" depart="1303.42" from="728838409" to="-4615404#1" departLane="best" type="truck_truck" departSpeed="max"/>
    <trip id="truck218" depart="1309.43" from="147646826#0" to="4613299#6" departLane="best" type="truck_truck" departSpeed="max"/>
    <trip id="truck219" depart="1315.44" from="728838409" to="-1134090050" departLane="best" type="truck_truck" departSpeed="max"/>
    <trip id="truck220" depart="1321.44" from="-1107953489" to="24968394" departLane="best" type="truck_truck"/>
    <trip id="truck221" depart="1327.45" from="-1107953482" to="1323456348#1" departLane="best" type="truck_truck" departSpeed="max"/>
    <trip id="truck222" depart="1333.46" from="1105526087" to="187091991" departLane="best" type="truck_truck" departSpeed="max"/>
    <trip id="truck223" depart="1339.46" from="-1107953482" to="-566764345" departLane="best" type="truck_truck" departSpeed="max"/>
    <trip id="truck224" depart="1345.47" from="147646826#0" to="333369841" departLane="best" type="truck_truck" departSpeed="max"/>
    <trip id="truck225" depart="1351.48" from="-671026861#1" to="311690284" departLane="best" type="truck_truck"/>
    <trip id="truck226" depart="1357.48" from="-671026861#1" to="311690284" departLane="best" type="truck_truck"/>
    <trip id="truck227" depart="1363.49" from="147646826#0" to="-48303485#2" departLane="best" type="truck_truck" departSpeed="max"/>
    <trip id="truck228" depart="1369.49" from="-1107953482" to="319339413#4" departLane="best" type="truck_truck" departSpeed="max"/>
    <trip id="truck229" depart="1375.50" from="147646826#0" to="-110464119#2" departLane="best" type="truck_truck" departSpeed="max"/>